MODEL        1
REMARK  Name = 1-acetyl-7-(acetyloxy)-1-hydroxy-9a,11a-dimethyl-hexadecahydro-1H-cyclopenta[a]phenanthren-2-yl 2-(3-iodophenyl)acetate
REMARK  7 active torsions:
REMARK  status: ('A' for Active; 'I' for Inactive)
REMARK    1  A    between atoms: C_2  and  C_14
REMARK    2  A    between atoms: C_7  and  O_12
REMARK    3  A    between atoms: C_11  and  O_12
REMARK    4  A    between atoms: C_11  and  C_26
REMARK    5  A    between atoms: C_17  and  O_20
REMARK    6  A    between atoms: O_20  and  C_22
REMARK    7  A    between atoms: C_26  and  C_27
REMARK                            x       y       z     vdW  Elec       q    Type
REMARK                         _______ _______ _______ _____ _____    ______ ____
ROOT
ATOM      1  C   UNL     1       0.003   1.240   0.000  0.00  0.00    +0.036 C 
ATOM      2  C   UNL     1       0.003   2.275   0.000  0.00  0.00    +0.003 C 
ATOM      3  C   UNL     1      -0.875   1.764   0.000  0.00  0.00    +0.003 C 
ATOM      4  C   UNL     1      -1.761   1.240   0.000  0.00  0.00    +0.000 C 
ATOM      5  C   UNL     1      -1.761   0.245   0.000  0.00  0.00    -0.000 C 
ATOM      6  C   UNL     1      -0.875  -0.232   0.000  0.00  0.00    +0.000 C 
ATOM      7  C   UNL     1      -0.875  -1.294   0.000  0.00  0.00    -0.000 C 
ATOM      8  C   UNL     1      -1.761  -1.764   0.000  0.00  0.00    -0.004 C 
ATOM      9  C   UNL     1      -2.592  -1.294   0.000  0.00  0.00    +0.016 C 
ATOM     10  C   UNL     1      -3.477  -1.764   0.000  0.00  0.00    +0.040 C 
ATOM     11  C   UNL     1      -4.376  -1.294   0.000  0.00  0.00    +0.169 C 
ATOM     12  C   UNL     1      -4.376  -0.232   0.000  0.00  0.00    +0.044 C 
ATOM     13  C   UNL     1      -3.477   0.245   0.000  0.00  0.00    +0.003 C 
ATOM     14  C   UNL     1      -2.592  -0.232   0.000  0.00  0.00    -0.003 C 
ATOM     15  C   UNL     1      -2.592   0.722   0.000  0.00  0.00    -0.000 C 
ATOM     16  C   UNL     1       0.003   0.245   0.000  0.00  0.00    +0.006 C 
ATOM     17  C   UNL     1       0.957  -0.014   0.000  0.00  0.00    +0.047 C 
ATOM     18  C   UNL     1       1.522   0.783   0.000  0.00  0.00    +0.203 C 
ATOM     19  C   UNL     1       0.923   1.539   0.000  0.00  0.00    +0.213 C 
ATOM     20  O   UNL     1       2.020   1.914   0.000  0.00  0.00    -0.214 OA
ENDROOT
BRANCH  19  21
ATOM     21  C   UNL     1       0.923   2.438   0.000  0.00  0.00    +0.182 C 
ATOM     22  C   UNL     1       0.058   2.909   0.000  0.00  0.00    +0.075 C 
ATOM     23  O   UNL     1       1.822   2.874   0.000  0.00  0.00    -0.293 OA
ENDBRANCH  19  21
BRANCH  11  24
ATOM     24  O   UNL     1      -5.242  -1.812   0.000  0.00  0.00    -0.452 OA
BRANCH  24  25
ATOM     25  C   UNL     1      -5.242  -2.793   0.000  0.00  0.00    +0.317 C 
ATOM     26  C   UNL     1      -6.073  -3.269   0.000  0.00  0.00    +0.121 C 
ATOM     27  O   UNL     1      -4.424  -3.399   0.000  0.00  0.00    -0.250 OA
ENDBRANCH  24  25
ENDBRANCH  11  24
BRANCH  18  28
ATOM     28  O   UNL     1       2.558   0.783   0.000  0.00  0.00    -0.449 OA
BRANCH  28  29
ATOM     29  C   UNL     1       3.062  -0.034   0.000  0.00  0.00    +0.321 C 
ATOM     30  O   UNL     1       2.605  -0.933   0.000  0.00  0.00    -0.250 OA
BRANCH  29  31
ATOM     31  C   UNL     1       4.042  -0.034   0.000  0.00  0.00    +0.136 C 
BRANCH  31  32
ATOM     32  C   UNL     1       4.554   0.817   0.000  0.00  0.00    -0.011 A 
ATOM     33  C   UNL     1       5.548   0.817   0.000  0.00  0.00    -0.004 A 
ATOM     34  C   UNL     1       6.073   1.669   0.000  0.00  0.00    +0.000 A 
ATOM     35  C   UNL     1       5.562   2.548   0.000  0.00  0.00    +0.006 A 
ATOM     36  C   UNL     1       4.554   2.548   0.000  0.00  0.00    +0.030 A 
ATOM     37  I   UNL     1       4.063   3.399   0.000  0.00  0.00    -0.043 I 
ATOM     38  C   UNL     1       4.042   1.669   0.000  0.00  0.00    +0.002 A 
ENDBRANCH  31  32
ENDBRANCH  29  31
ENDBRANCH  28  29
ENDBRANCH  18  28
TORSDOF 7
ENDMDL
MODEL        2
REMARK  Name = benzyl 5-({6-[(benzyloxy)carbonyl]-3,4,5-trihydroxyoxan-2-yl}oxy)-6-({11-[(benzyloxy)carbonyl]-4,4,6a,6b,8a,11,14b-heptamethyl-14-oxo-1,2,3,4,4a,5,6,6a,6b,7,8,8a,9,10,11,12,12a,14,14a,14b-icosahydropi cen-3-yl}oxy)-3,4-dihydroxyoxane-2-carboxylate
REMARK  16 active torsions:
REMARK  status: ('A' for Active; 'I' for Inactive)
REMARK    1  A    between atoms: C_5  and  O_22
REMARK    2  A    between atoms: C_6  and  C_26
REMARK    3  A    between atoms: C_7  and  C_25
REMARK    4  A    between atoms: C_9  and  O_22
REMARK    5  A    between atoms: C_10  and  O_29
REMARK    6  A    between atoms: C_24  and  C_31
REMARK    7  A    between atoms: C_25  and  O_36
REMARK    8  A    between atoms: C_26  and  O_37
REMARK    9  A    between atoms: O_29  and  C_30
REMARK   10  A    between atoms: C_31  and  O_38
REMARK   11  A    between atoms: O_36  and  C_55
REMARK   12  A    between atoms: O_37  and  C_56
REMARK   13  A    between atoms: O_38  and  C_57
REMARK   14  A    between atoms: C_55  and  C_61
REMARK   15  A    between atoms: C_56  and  C_60
REMARK   16  A    between atoms: C_57  and  C_62
REMARK                            x       y       z     vdW  Elec       q    Type
REMARK                         _______ _______ _______ _____ _____    ______ ____
ROOT
ATOM      1  C   UNL     1       1.720   2.555   0.000  0.00  0.00    -0.042 C 
ATOM      2  C   UNL     1       2.684   3.217   0.000  0.00  0.00    +0.019 C 
ATOM      3  C   UNL     1       3.632   2.672   0.000  0.00  0.00    +0.003 C 
ATOM      4  C   UNL     1       4.698   2.034   0.000  0.00  0.00    +0.000 C 
ATOM      5  C   UNL     1       4.580   3.217   0.000  0.00  0.00    +0.001 C 
ATOM      6  C   UNL     1       4.580   4.308   0.000  0.00  0.00    +0.011 C 
ATOM      7  C   UNL     1       3.632   4.828   0.000  0.00  0.00    +0.090 C 
ATOM      8  C   UNL     1       2.684   5.432   0.000  0.00  0.00    +0.011 C 
ATOM      9  C   UNL     1       3.632   1.565   0.000  0.00  0.00    +0.001 C 
ATOM     10  C   UNL     1       2.684   1.028   0.000  0.00  0.00    +0.004 C 
ATOM     11  C   UNL     1       2.684   4.308   0.000  0.00  0.00    +0.015 C 
ATOM     12  C   UNL     1       0.973   3.016   0.000  0.00  0.00    +0.029 C 
ATOM     13  C   UNL     1       0.227   2.555   0.000  0.00  0.00    +0.172 C 
ATOM     14  O   UNL     1      -0.721   3.100   0.000  0.00  0.00    -0.291 OA
ATOM     15  C   UNL     1       0.227   1.665   0.000  0.00  0.00    +0.062 C 
ATOM     16  C   UNL     1       0.973   1.246   0.000  0.00  0.00    +0.010 C 
ATOM     17  C   UNL     1       0.973   2.093   0.000  0.00  0.00    +0.001 C 
ATOM     18  C   UNL     1       0.973   0.281   0.000  0.00  0.00    +0.001 C 
ATOM     19  C   UNL     1       0.227  -0.206   0.000  0.00  0.00    +0.000 C 
ATOM     20  C   UNL     1      -0.537   0.281   0.000  0.00  0.00    +0.003 C 
ATOM     21  C   UNL     1      -1.343  -0.206   0.000  0.00  0.00    +0.025 C 
ATOM     22  C   UNL     1      -2.106   0.281   0.000  0.00  0.00    +0.118 C 
ATOM     23  C   UNL     1      -2.106   1.246   0.000  0.00  0.00    +0.030 C 
ATOM     24  C   UNL     1      -1.343   1.665   0.000  0.00  0.00    +0.003 C 
ATOM     25  C   UNL     1      -1.887  -1.288   0.000  0.00  0.00    +0.002 C 
ATOM     26  C   UNL     1      -0.680  -1.112   0.000  0.00  0.00    +0.002 C 
ATOM     27  C   UNL     1      -0.537   1.246   0.000  0.00  0.00    +0.007 C 
ATOM     28  C   UNL     1      -0.537   2.152   0.000  0.00  0.00    +0.000 C 
ATOM     29  C   UNL     1       1.720   1.665   0.000  0.00  0.00    +0.016 C 
ATOM     30  C   UNL     1       1.736   0.642   0.000  0.00  0.00    +0.004 C 
ENDROOT
BRANCH   7  31
ATOM     31  C   UNL     1       4.538   5.457   0.000  0.00  0.00    +0.316 C 
ATOM     32  O   UNL     1       4.538   6.623   0.000  0.00  0.00    -0.250 OA
BRANCH  31  33
ATOM     33  O   UNL     1       5.603   4.828   0.000  0.00  0.00    -0.444 OA
BRANCH  33  34
ATOM     34  C   UNL     1       6.451   5.373   0.000  0.00  0.00    +0.235 C 
BRANCH  34  35
ATOM     35  C   UNL     1       7.332   4.928   0.000  0.00  0.00    +0.021 A 
ATOM     36  C   UNL     1       8.162   5.474   0.000  0.00  0.00    -0.001 A 
ATOM     37  C   UNL     1       9.043   5.012   0.000  0.00  0.00    -0.000 A 
ATOM     38  C   UNL     1       9.110   4.048   0.000  0.00  0.00    -0.000 A 
ATOM     39  C   UNL     1       8.263   3.477   0.000  0.00  0.00    -0.000 A 
ATOM     40  C   UNL     1       7.374   3.947   0.000  0.00  0.00    -0.001 A 
ENDBRANCH  34  35
ENDBRANCH  33  34
ENDBRANCH  31  33
ENDBRANCH   7  31
BRANCH  22  41
ATOM     41  O   UNL     1      -2.970  -0.206   0.000  0.00  0.00    -0.331 OA
BRANCH  41  42
ATOM     42  C   UNL     1      -2.970  -1.372   0.000  0.00  0.00    +0.267 C 
ATOM     43  O   UNL     1      -3.615  -0.549   0.000  0.00  0.00    -0.317 OA
ATOM     44  C   UNL     1      -4.807  -0.549   0.000  0.00  0.00    +0.249 C 
ATOM     45  C   UNL     1      -5.453  -1.372   0.000  0.00  0.00    +0.223 C 
ATOM     46  C   UNL     1      -4.807  -2.135   0.000  0.00  0.00    +0.217 C 
ATOM     47  O   UNL     1      -4.807  -1.313   0.000  0.00  0.00    -0.217 OA
ATOM     48  O   UNL     1      -5.428  -2.294   0.000  0.00  0.00    -0.217 OA
ATOM     49  C   UNL     1      -3.615  -2.135   0.000  0.00  0.00    +0.207 C 
BRANCH  44  50
ATOM     50  C   UNL     1      -4.807  -0.046   0.000  0.00  0.00    +0.348 C 
ATOM     51  O   UNL     1      -4.203   0.323   0.000  0.00  0.00    -0.247 OA
BRANCH  50  52
ATOM     52  O   UNL     1      -5.310   0.222   0.000  0.00  0.00    -0.442 OA
BRANCH  52  53
ATOM     53  C   UNL     1      -5.310   1.187   0.000  0.00  0.00    +0.235 C 
BRANCH  53  54
ATOM     54  C   UNL     1      -4.446   1.649   0.000  0.00  0.00    +0.021 A 
ATOM     55  C   UNL     1      -4.446   2.655   0.000  0.00  0.00    -0.001 A 
ATOM     56  C   UNL     1      -3.540   3.142   0.000  0.00  0.00    -0.000 A 
ATOM     57  C   UNL     1      -2.668   2.613   0.000  0.00  0.00    -0.000 A 
ATOM     58  C   UNL     1      -2.693   1.590   0.000  0.00  0.00    -0.000 A 
ATOM     59  C   UNL     1      -3.599   1.128   0.000  0.00  0.00    -0.001 A 
ENDBRANCH  53  54
ENDBRANCH  52  53
ENDBRANCH  50  52
ENDBRANCH  44  50
BRANCH  49  60
ATOM     60  O   UNL     1      -3.599  -3.502   0.000  0.00  0.00    -0.323 OA
BRANCH  60  61
ATOM     61  C   UNL     1      -3.599  -4.979   0.000  0.00  0.00    +0.270 C 
ATOM     62  C   UNL     1      -4.220  -5.801   0.000  0.00  0.00    +0.241 C 
ATOM     63  O   UNL     1      -4.220  -6.623   0.000  0.00  0.00    -0.215 OA
ATOM     64  C   UNL     1      -5.386  -5.801   0.000  0.00  0.00    +0.220 C 
ATOM     65  O   UNL     1      -5.386  -4.979   0.000  0.00  0.00    -0.217 OA
ATOM     66  C   UNL     1      -6.074  -4.979   0.000  0.00  0.00    +0.223 C 
ATOM     67  C   UNL     1      -5.386  -4.148   0.000  0.00  0.00    +0.249 C 
ATOM     68  O   UNL     1      -6.074  -6.019   0.000  0.00  0.00    -0.217 OA
ATOM     69  O   UNL     1      -4.220  -4.148   0.000  0.00  0.00    -0.317 OA
BRANCH  67  70
ATOM     70  C   UNL     1      -5.386  -3.628   0.000  0.00  0.00    +0.348 C 
ATOM     71  O   UNL     1      -4.765  -3.041   0.000  0.00  0.00    -0.247 OA
BRANCH  70  72
ATOM     72  O   UNL     1      -6.115  -3.242   0.000  0.00  0.00    -0.442 OA
BRANCH  72  73
ATOM     73  C   UNL     1      -7.097  -3.242   0.000  0.00  0.00    +0.235 C 
BRANCH  73  74
ATOM     74  C   UNL     1      -7.600  -2.395   0.000  0.00  0.00    +0.021 A 
ATOM     75  C   UNL     1      -8.607  -2.420   0.000  0.00  0.00    -0.001 A 
ATOM     76  C   UNL     1      -9.110  -1.556   0.000  0.00  0.00    -0.000 A 
ATOM     77  C   UNL     1      -8.632  -0.667   0.000  0.00  0.00    -0.000 A 
ATOM     78  C   UNL     1      -7.600  -0.650   0.000  0.00  0.00    -0.000 A 
ATOM     79  C   UNL     1      -7.122  -1.531   0.000  0.00  0.00    -0.001 A 
ENDBRANCH  73  74
ENDBRANCH  72  73
ENDBRANCH  70  72
ENDBRANCH  67  70
ENDBRANCH  60  61
ENDBRANCH  49  60
ENDBRANCH  41  42
ENDBRANCH  22  41
TORSDOF 16
ENDMDL
MODEL        3
REMARK  Name = 1,5-dimethyl 2-{[10-({6-[(1,5-dimethoxy-1,5-dioxopentan-2-yl)carbamoyl]-3-({6-[(1,5-dimethoxy-1,5-dioxopentan-2-yl)carbamoyl]-3,4,5-trihydroxyoxan-2-yl}oxy)-4,5-dihydroxyoxan-2-yl}oxy)-2,4a,6a,6b,9,9, 12a-heptamethyl-13-oxo-1,2,3,4,4a,5,6,6a,6b,7,8,8a,9,10,11,12,12a,12b,13,14b-icosahydropicen-2-yl]formamido}pentanedioate
REMARK  28 active torsions:
REMARK  status: ('A' for Active; 'I' for Inactive)
REMARK    1  A    between atoms: C_5  and  C_22
REMARK    2  A    between atoms: C_6  and  C_23
REMARK    3  A    between atoms: C_7  and  O_24
REMARK    4  A    between atoms: C_9  and  O_24
REMARK    5  A    between atoms: C_10  and  O_32
REMARK    6  A    between atoms: C_26  and  C_27
REMARK    7  A    between atoms: N_29  and  C_42
REMARK    8  A    between atoms: N_30  and  C_43
REMARK    9  A    between atoms: O_32  and  C_33
REMARK   10  A    between atoms: N_34  and  C_44
REMARK   11  A    between atoms: C_39  and  C_42
REMARK   12  A    between atoms: C_39  and  O_77
REMARK   13  A    between atoms: C_40  and  C_43
REMARK   14  A    between atoms: C_40  and  O_78
REMARK   15  A    between atoms: C_41  and  C_44
REMARK   16  A    between atoms: C_41  and  O_76
REMARK   17  A    between atoms: C_42  and  C_63
REMARK   18  A    between atoms: C_43  and  C_64
REMARK   19  A    between atoms: C_44  and  C_62
REMARK   20  A    between atoms: C_45  and  C_72
REMARK   21  A    between atoms: C_45  and  O_81
REMARK   22  A    between atoms: C_46  and  C_73
REMARK   23  A    between atoms: C_46  and  O_79
REMARK   24  A    between atoms: C_47  and  C_74
REMARK   25  A    between atoms: C_47  and  O_80
REMARK   26  A    between atoms: C_62  and  C_74
REMARK   27  A    between atoms: C_63  and  C_73
REMARK   28  A    between atoms: C_64  and  C_72
REMARK                            x       y       z     vdW  Elec       q    Type
REMARK                         _______ _______ _______ _____ _____    ______ ____
ROOT
ATOM      1  C   UNL     1      -2.874  -1.937   0.000  0.00  0.00    +0.266 C 
ATOM      2  O   UNL     1      -3.524  -1.110   0.000  0.00  0.00    -0.319 OA
ATOM      3  C   UNL     1      -4.723  -1.110   0.000  0.00  0.00    +0.228 C 
ATOM      4  C   UNL     1      -5.373  -1.937   0.000  0.00  0.00    +0.221 C 
ATOM      5  C   UNL     1      -4.723  -2.705   0.000  0.00  0.00    +0.217 C 
ATOM      6  O   UNL     1      -4.723  -1.878   0.000  0.00  0.00    -0.217 OA
ATOM      7  O   UNL     1      -5.347  -2.865   0.000  0.00  0.00    -0.217 OA
ATOM      8  C   UNL     1      -3.524  -2.705   0.000  0.00  0.00    +0.207 C 
ENDROOT
BRANCH   3   9
ATOM      9  C   UNL     1      -4.723  -0.603   0.000  0.00  0.00    +0.271 C 
ATOM     10  O   UNL     1      -4.115  -0.232   0.000  0.00  0.00    -0.271 OA
ATOM     11  N   UNL     1      -5.229  -0.334   0.000  0.00  0.00    -0.200 NA
BRANCH  11  12
ATOM     12  C   UNL     1      -5.229   0.637   0.000  0.00  0.00    +0.214 C 
BRANCH  12  13
ATOM     13  C   UNL     1      -6.200   0.637   0.000  0.00  0.00    +0.331 C 
ATOM     14  O   UNL     1      -6.689  -0.215   0.000  0.00  0.00    -0.249 OA
BRANCH  13  15
ATOM     15  O   UNL     1      -6.707   1.464   0.000  0.00  0.00    -0.443 OA
ATOM     16  C   UNL     1      -7.702   1.490   0.000  0.00  0.00    +0.256 C 
ENDBRANCH  13  15
ENDBRANCH  12  13
BRANCH  12  17
ATOM     17  C   UNL     1      -5.229   1.608   0.000  0.00  0.00    +0.038 C 
BRANCH  17  18
ATOM     18  C   UNL     1      -4.360   2.072   0.000  0.00  0.00    +0.112 C 
BRANCH  18  19
ATOM     19  C   UNL     1      -4.334   3.068   0.000  0.00  0.00    +0.317 C 
ATOM     20  O   UNL     1      -5.170   3.575   0.000  0.00  0.00    -0.250 OA
BRANCH  19  21
ATOM     21  O   UNL     1      -3.482   3.550   0.000  0.00  0.00    -0.444 OA
ATOM     22  C   UNL     1      -3.482   4.546   0.000  0.00  0.00    +0.256 C 
ENDBRANCH  19  21
ENDBRANCH  18  19
ENDBRANCH  17  18
ENDBRANCH  12  17
ENDBRANCH  11  12
ENDBRANCH   3   9
BRANCH   1  23
ATOM     23  O   UNL     1      -2.874  -0.764   0.000  0.00  0.00    -0.331 OA
BRANCH  23  45
ATOM     24  C   UNL     1       1.844   2.013   0.000  0.00  0.00    -0.042 C 
ATOM     25  C   UNL     1       2.815   2.680   0.000  0.00  0.00    +0.019 C 
ATOM     26  C   UNL     1       3.769   2.131   0.000  0.00  0.00    +0.003 C 
ATOM     27  C   UNL     1       4.841   1.490   0.000  0.00  0.00    +0.000 C 
ATOM     28  C   UNL     1       4.723   2.680   0.000  0.00  0.00    +0.001 C 
ATOM     29  C   UNL     1       4.723   3.778   0.000  0.00  0.00    +0.009 C 
ATOM     30  C   UNL     1       3.769   4.301   0.000  0.00  0.00    +0.071 C 
ATOM     31  C   UNL     1       2.815   4.909   0.000  0.00  0.00    +0.009 C 
ATOM     32  C   UNL     1       3.769   1.018   0.000  0.00  0.00    +0.001 C 
ATOM     33  C   UNL     1       2.815   0.477   0.000  0.00  0.00    +0.004 C 
ATOM     34  C   UNL     1       2.815   3.778   0.000  0.00  0.00    +0.013 C 
ATOM     35  C   UNL     1       1.093   2.478   0.000  0.00  0.00    +0.029 C 
ATOM     36  C   UNL     1       0.342   2.013   0.000  0.00  0.00    +0.172 C 
ATOM     37  O   UNL     1      -0.612   2.562   0.000  0.00  0.00    -0.291 OA
ATOM     38  C   UNL     1       0.342   1.119   0.000  0.00  0.00    +0.062 C 
ATOM     39  C   UNL     1       1.093   0.697   0.000  0.00  0.00    +0.010 C 
ATOM     40  C   UNL     1       1.093   1.549   0.000  0.00  0.00    +0.001 C 
ATOM     41  C   UNL     1       1.093  -0.274   0.000  0.00  0.00    +0.001 C 
ATOM     42  C   UNL     1       0.342  -0.764   0.000  0.00  0.00    +0.000 C 
ATOM     43  C   UNL     1      -0.426  -0.274   0.000  0.00  0.00    +0.003 C 
ATOM     44  C   UNL     1      -1.237  -0.764   0.000  0.00  0.00    +0.025 C 
ATOM     45  C   UNL     1      -2.005  -0.274   0.000  0.00  0.00    +0.118 C 
ATOM     46  C   UNL     1      -2.005   0.697   0.000  0.00  0.00    +0.030 C 
ATOM     47  C   UNL     1      -1.237   1.119   0.000  0.00  0.00    +0.003 C 
ATOM     48  C   UNL     1      -1.786  -1.853   0.000  0.00  0.00    +0.002 C 
ATOM     49  C   UNL     1      -0.570  -1.676   0.000  0.00  0.00    +0.002 C 
ATOM     50  C   UNL     1      -0.426   0.697   0.000  0.00  0.00    +0.007 C 
ATOM     51  C   UNL     1      -0.426   1.608   0.000  0.00  0.00    +0.000 C 
ATOM     52  C   UNL     1       1.844   1.119   0.000  0.00  0.00    +0.016 C 
ATOM     53  C   UNL     1       1.861   0.089   0.000  0.00  0.00    +0.004 C 
BRANCH  30  54
ATOM     54  C   UNL     1       4.681   4.934   0.000  0.00  0.00    +0.241 C 
ATOM     55  O   UNL     1       4.681   6.107   0.000  0.00  0.00    -0.273 OA
ATOM     56  N   UNL     1       6.141   4.199   0.000  0.00  0.00    -0.202 NA
BRANCH  56  57
ATOM     57  C   UNL     1       6.968   4.689   0.000  0.00  0.00    +0.214 C 
BRANCH  57  58
ATOM     58  C   UNL     1       6.462   5.542   0.000  0.00  0.00    +0.331 C 
ATOM     59  O   UNL     1       5.592   5.542   0.000  0.00  0.00    -0.249 OA
BRANCH  58  60
ATOM     60  O   UNL     1       6.951   6.369   0.000  0.00  0.00    -0.443 OA
ATOM     61  C   UNL     1       6.479   7.221   0.000  0.00  0.00    +0.256 C 
ENDBRANCH  58  60
ENDBRANCH  57  58
BRANCH  57  62
ATOM     62  C   UNL     1       7.474   3.837   0.000  0.00  0.00    +0.038 C 
BRANCH  62  63
ATOM     63  C   UNL     1       8.471   3.837   0.000  0.00  0.00    +0.112 C 
BRANCH  63  64
ATOM     64  C   UNL     1       8.977   2.984   0.000  0.00  0.00    +0.317 C 
ATOM     65  O   UNL     1       9.965   2.984   0.000  0.00  0.00    -0.250 OA
BRANCH  64  66
ATOM     66  O   UNL     1       8.488   2.131   0.000  0.00  0.00    -0.444 OA
ATOM     67  C   UNL     1       8.994   1.287   0.000  0.00  0.00    +0.256 C 
ENDBRANCH  64  66
ENDBRANCH  63  64
ENDBRANCH  62  63
ENDBRANCH  57  62
ENDBRANCH  56  57
ENDBRANCH  30  54
ENDBRANCH  23  45
ENDBRANCH   1  23
BRANCH   8  68
ATOM     68  O   UNL     1      -3.507  -4.081   0.000  0.00  0.00    -0.323 OA
BRANCH  68  69
ATOM     69  C   UNL     1      -3.507  -5.567   0.000  0.00  0.00    +0.270 C 
ATOM     70  C   UNL     1      -4.132  -6.394   0.000  0.00  0.00    +0.241 C 
ATOM     71  O   UNL     1      -4.132  -7.221   0.000  0.00  0.00    -0.215 OA
ATOM     72  C   UNL     1      -5.305  -6.394   0.000  0.00  0.00    +0.220 C 
ATOM     73  O   UNL     1      -5.305  -5.567   0.000  0.00  0.00    -0.217 OA
ATOM     74  C   UNL     1      -5.998  -5.567   0.000  0.00  0.00    +0.221 C 
ATOM     75  C   UNL     1      -5.305  -4.731   0.000  0.00  0.00    +0.228 C 
ATOM     76  O   UNL     1      -5.998  -6.614   0.000  0.00  0.00    -0.217 OA
ATOM     77  O   UNL     1      -4.132  -4.731   0.000  0.00  0.00    -0.319 OA
BRANCH  75  78
ATOM     78  C   UNL     1      -5.305  -4.208   0.000  0.00  0.00    +0.271 C 
ATOM     79  O   UNL     1      -4.681  -3.617   0.000  0.00  0.00    -0.271 OA
ATOM     80  N   UNL     1      -6.040  -3.820   0.000  0.00  0.00    -0.200 NA
BRANCH  80  81
ATOM     81  C   UNL     1      -7.027  -3.820   0.000  0.00  0.00    +0.214 C 
BRANCH  81  82
ATOM     82  C   UNL     1      -7.027  -2.832   0.000  0.00  0.00    +0.331 C 
ATOM     83  O   UNL     1      -6.183  -2.325   0.000  0.00  0.00    -0.249 OA
BRANCH  82  84
ATOM     84  O   UNL     1      -7.838  -2.325   0.000  0.00  0.00    -0.443 OA
ATOM     85  C   UNL     1      -8.716  -2.790   0.000  0.00  0.00    +0.256 C 
ENDBRANCH  82  84
ENDBRANCH  81  82
BRANCH  81  86
ATOM     86  C   UNL     1      -7.981  -3.820   0.000  0.00  0.00    +0.038 C 
BRANCH  86  87
ATOM     87  C   UNL     1      -8.471  -4.672   0.000  0.00  0.00    +0.112 C 
BRANCH  87  88
ATOM     88  C   UNL     1      -9.459  -4.672   0.000  0.00  0.00    +0.317 C 
ATOM     89  O   UNL     1      -9.965  -3.820   0.000  0.00  0.00    -0.250 OA
BRANCH  88  90
ATOM     90  O   UNL     1      -9.948  -5.525   0.000  0.00  0.00    -0.444 OA
ATOM     91  C   UNL     1      -9.441  -6.377   0.000  0.00  0.00    +0.256 C 
ENDBRANCH  88  90
ENDBRANCH  87  88
ENDBRANCH  86  87
ENDBRANCH  81  86
ENDBRANCH  80  81
ENDBRANCH  75  78
ENDBRANCH  68  69
ENDBRANCH   8  68
TORSDOF 28
ENDMDL
MODEL        4
REMARK  Name = 1,7,7-trimethylbicyclo[2.2.1]heptan-2-yl 4-hydroxy-3-methoxybenzoate
REMARK  4 active torsions:
REMARK  status: ('A' for Active; 'I' for Inactive)
REMARK    1  A    between atoms: C_3  and  O_5
REMARK    2  A    between atoms: C_4  and  O_5
REMARK    3  A    between atoms: C_4  and  C_7
REMARK    4  A    between atoms: C_11  and  O_18
REMARK                            x       y       z     vdW  Elec       q    Type
REMARK                         _______ _______ _______ _____ _____    ______ ____
ROOT
ATOM      1  O   UNL     1      -0.721  -0.493   0.000  0.00  0.00    -0.457 OA
ENDROOT
BRANCH   1   8
ATOM      2  C   UNL     1      -2.626  -0.493   0.000  0.00  0.00    +0.030 C 
ATOM      3  C   UNL     1      -2.626   0.600   0.000  0.00  0.00    +0.003 C 
ATOM      4  C   UNL     1      -3.573  -1.033   0.000  0.00  0.00    +0.003 C 
ATOM      5  C   UNL     1      -3.573  -2.155   0.000  0.00  0.00    +0.000 C 
ATOM      6  C   UNL     1      -2.626  -2.685   0.000  0.00  0.00    +0.003 C 
ATOM      7  C   UNL     1      -1.667  -2.155   0.000  0.00  0.00    +0.036 C 
ATOM      8  C   UNL     1      -1.667  -1.033   0.000  0.00  0.00    +0.193 C 
ATOM      9  C   UNL     1      -2.626  -1.618   0.000  0.00  0.00    +0.003 C 
ATOM     10  C   UNL     1      -2.135  -1.618   0.000  0.00  0.00    +0.000 C 
ATOM     11  C   UNL     1      -3.195  -1.618   0.000  0.00  0.00    +0.000 C 
ENDBRANCH   1   8
BRANCH   1  12
ATOM     12  C   UNL     1       0.184  -0.929   0.000  0.00  0.00    +0.341 C 
ATOM     13  O   UNL     1       0.168  -1.960   0.000  0.00  0.00    -0.245 OA
BRANCH  12  14
ATOM     14  C   UNL     1       1.003  -0.382   0.000  0.00  0.00    +0.079 A 
ATOM     15  C   UNL     1       1.907  -0.867   0.000  0.00  0.00    +0.010 A 
ATOM     16  C   UNL     1       2.714  -0.330   0.000  0.00  0.00    +0.045 A 
ATOM     17  C   UNL     1       2.727   0.685   0.000  0.00  0.00    +0.229 A 
ATOM     18  C   UNL     1       1.839   1.147   0.000  0.00  0.00    +0.178 A 
ATOM     19  O   UNL     1       3.573   1.231   0.000  0.00  0.00    -0.283 OA
ATOM     20  C   UNL     1       0.987   0.616   0.000  0.00  0.00    +0.047 A 
BRANCH  18  21
ATOM     21  O   UNL     1       1.823   2.139   0.000  0.00  0.00    -0.468 OA
ATOM     22  C   UNL     1       2.626   2.685   0.000  0.00  0.00    +0.253 C 
ENDBRANCH  18  21
ENDBRANCH  12  14
ENDBRANCH   1  12
TORSDOF 4
ENDMDL
MODEL        5
REMARK  Name = 3a,5a,5b,8,8,11a-hexamethyl-1-(prop-1-en-2-yl)-icosahydro-1H-cyclopenta[a]chrysen-9-yl acetate
REMARK  3 active torsions:
REMARK  status: ('A' for Active; 'I' for Inactive)
REMARK    1  A    between atoms: C_9  and  C_18
REMARK    2  A    between atoms: C_11  and  O_19
REMARK    3  A    between atoms: O_19  and  C_21
REMARK                            x       y       z     vdW  Elec       q    Type
REMARK                         _______ _______ _______ _____ _____    ______ ____
ROOT
ATOM      1  C   UNL     1       1.705  -0.274   0.000  0.00  0.00    +0.000 C 
ATOM      2  C   UNL     1       1.705  -1.145   0.000  0.00  0.00    +0.000 C 
ATOM      3  C   UNL     1       2.586  -0.779   0.000  0.00  0.00    +0.000 C 
ATOM      4  C   UNL     1       3.462  -0.264   0.000  0.00  0.00    +0.000 C 
ATOM      5  C   UNL     1       3.462   0.741   0.000  0.00  0.00    +0.000 C 
ATOM      6  C   UNL     1       2.586   1.255   0.000  0.00  0.00    +0.004 C 
ATOM      7  C   UNL     1       2.767   2.250   0.000  0.00  0.00    +0.018 C 
ATOM      8  C   UNL     1       3.796   2.379   0.000  0.00  0.00    +0.004 C 
ATOM      9  C   UNL     1       4.424   0.226   0.000  0.00  0.00    +0.000 C 
ATOM     10  C   UNL     1       4.229   1.450   0.000  0.00  0.00    +0.000 C 
ATOM     11  C   UNL     1       1.705   0.755   0.000  0.00  0.00    +0.000 C 
ATOM     12  C   UNL     1       0.814   1.269   0.000  0.00  0.00    +0.000 C 
ATOM     13  C   UNL     1      -0.067   0.755   0.000  0.00  0.00    +0.000 C 
ATOM     14  C   UNL     1      -0.067  -0.264   0.000  0.00  0.00    +0.000 C 
ATOM     15  C   UNL     1      -0.957  -0.788   0.000  0.00  0.00    +0.000 C 
ATOM     16  C   UNL     1      -0.957  -1.808   0.000  0.00  0.00    +0.003 C 
ATOM     17  C   UNL     1      -1.838  -2.322   0.000  0.00  0.00    +0.037 C 
ATOM     18  C   UNL     1      -2.572  -2.779   0.000  0.00  0.00    +0.004 C 
ATOM     19  C   UNL     1      -1.095  -2.746   0.000  0.00  0.00    +0.004 C 
ATOM     20  C   UNL     1      -2.729  -1.808   0.000  0.00  0.00    +0.169 C 
ATOM     21  C   UNL     1      -2.729  -0.788   0.000  0.00  0.00    +0.044 C 
ATOM     22  C   UNL     1      -0.067  -2.322   0.000  0.00  0.00    +0.000 C 
ATOM     23  C   UNL     1       0.814  -1.808   0.000  0.00  0.00    +0.000 C 
ATOM     24  C   UNL     1      -0.957   0.112   0.000  0.00  0.00    +0.000 C 
ATOM     25  C   UNL     1      -1.838  -0.264   0.000  0.00  0.00    +0.004 C 
ATOM     26  C   UNL     1       0.814  -0.788   0.000  0.00  0.00    +0.000 C 
ATOM     27  C   UNL     1       0.824   0.079   0.000  0.00  0.00    +0.000 C 
ENDROOT
BRANCH   7  28
ATOM     28  C   UNL     1       2.081   2.969   0.000  0.00  0.00    -0.044 C 
ATOM     29  C   UNL     1       1.110   2.741   0.000  0.00  0.00    +0.026 C 
ATOM     30  C   UNL     1       2.357   3.922   0.000  0.00  0.00    -0.009 C 
ENDBRANCH   7  28
BRANCH  20  31
ATOM     31  O   UNL     1      -3.600  -2.307   0.000  0.00  0.00    -0.452 OA
BRANCH  31  32
ATOM     32  C   UNL     1      -3.600  -3.303   0.000  0.00  0.00    +0.317 C 
ATOM     33  C   UNL     1      -4.424  -3.774   0.000  0.00  0.00    +0.121 C 
ATOM     34  O   UNL     1      -2.767  -3.922   0.000  0.00  0.00    -0.250 OA
ENDBRANCH  31  32
ENDBRANCH  20  31
TORSDOF 3
ENDMDL
MODEL        6
REMARK  Name = 2-({14-HYDROXY-15-[5-(2-HYDROXYPROPAN-2-YL)-2-METHYLOXOLAN-2-YL]-7,7,12,16-TETRAMETHYL-6-[(3,4,5-TRIHYDROXYOXAN-2-YL)OXY]PENTACYCLO[9.7.0.0^(1,3).0^(3,8).0^(12,16)]OCTADECAN-9-YL}OXY)-6-(HYDROXYMETHYL )OXANE-3,4,5-TRIOL
REMARK  7 active torsions:
REMARK  status: ('A' for Active; 'I' for Inactive)
REMARK    1  A    between atoms: C_8  and  C_10
REMARK    2  A    between atoms: C_9  and  O_25
REMARK    3  A    between atoms: C_14  and  O_29
REMARK    4  A    between atoms: C_16  and  O_25
REMARK    5  A    between atoms: C_23  and  C_50
REMARK    6  A    between atoms: C_27  and  O_29
REMARK    7  A    between atoms: C_32  and  C_34
REMARK                            x       y       z     vdW  Elec       q    Type
REMARK                         _______ _______ _______ _____ _____    ______ ____
ROOT
ATOM      1  C   UNL     1      -0.151   1.762   0.000  0.00  0.00    +0.000 C 
ATOM      2  C   UNL     1      -0.151   2.610   0.000  0.00  0.00    +0.000 C 
ATOM      3  C   UNL     1       0.587   3.046   0.000  0.00  0.00    +0.000 C 
ATOM      4  C   UNL     1       1.314   2.610   0.000  0.00  0.00    +0.005 C 
ATOM      5  C   UNL     1       1.314   1.762   0.000  0.00  0.00    +0.003 C 
ATOM      6  C   UNL     1       1.314   0.963   0.000  0.00  0.00    +0.000 C 
ATOM      7  C   UNL     1       2.113   1.520   0.000  0.00  0.00    +0.033 C 
ATOM      8  C   UNL     1       2.579   2.186   0.000  0.00  0.00    +0.154 C 
ATOM      9  O   UNL     1       3.494   2.186   0.000  0.00  0.00    -0.223 OA
ATOM     10  C   UNL     1       1.314   3.596   0.000  0.00  0.00    +0.000 C 
ATOM     11  C   UNL     1       2.113   2.852   0.000  0.00  0.00    +0.055 C 
ATOM     12  C   UNL     1      -0.890   2.331   0.000  0.00  0.00    +0.000 C 
ATOM     13  C   UNL     1       0.587   1.314   0.000  0.00  0.00    +0.002 C 
ATOM     14  C   UNL     1       0.587   0.484   0.000  0.00  0.00    +0.030 C 
ATOM     15  C   UNL     1      -0.151   0.067   0.000  0.00  0.00    +0.118 C 
ATOM     16  C   UNL     1      -0.890   0.484   0.000  0.00  0.00    +0.030 C 
ATOM     17  C   UNL     1      -1.647   0.067   0.000  0.00  0.00    +0.027 C 
ATOM     18  C   UNL     1      -2.319   0.484   0.000  0.00  0.00    +0.118 C 
ATOM     19  C   UNL     1      -2.319   1.314   0.000  0.00  0.00    +0.030 C 
ATOM     20  C   UNL     1      -1.647   1.762   0.000  0.00  0.00    +0.003 C 
ATOM     21  C   UNL     1      -1.314  -0.678   0.000  0.00  0.00    +0.002 C 
ATOM     22  C   UNL     1      -2.143  -0.709   0.000  0.00  0.00    +0.002 C 
ATOM     23  C   UNL     1      -0.890   1.314   0.000  0.00  0.00    +0.002 C 
ENDROOT
BRANCH  11  24
ATOM     24  C   UNL     1       2.549   3.772   0.000  0.00  0.00    +0.095 C 
ATOM     25  C   UNL     1       1.841   4.250   0.000  0.00  0.00    +0.030 C 
ATOM     26  C   UNL     1       2.549   4.686   0.000  0.00  0.00    +0.030 C 
ATOM     27  C   UNL     1       3.451   4.977   0.000  0.00  0.00    +0.035 C 
ATOM     28  C   UNL     1       4.003   4.250   0.000  0.00  0.00    +0.143 C 
ATOM     29  O   UNL     1       3.451   3.451   0.000  0.00  0.00    -0.358 OA
BRANCH  28  30
ATOM     30  C   UNL     1       4.923   4.250   0.000  0.00  0.00    +0.151 C 
ATOM     31  C   UNL     1       4.923   5.195   0.000  0.00  0.00    +0.035 C 
ATOM     32  C   UNL     1       4.923   3.288   0.000  0.00  0.00    +0.035 C 
ATOM     33  O   UNL     1       5.879   4.250   0.000  0.00  0.00    -0.223 OA
ENDBRANCH  28  30
ENDBRANCH  11  24
BRANCH  18  34
ATOM     34  O   UNL     1      -3.070   0.048   0.000  0.00  0.00    -0.331 OA
BRANCH  34  35
ATOM     35  C   UNL     1      -3.070  -1.096   0.000  0.00  0.00    +0.269 C 
ATOM     36  O   UNL     1      -3.784  -0.182   0.000  0.00  0.00    -0.326 OA
ATOM     37  C   UNL     1      -5.153  -0.182   0.000  0.00  0.00    +0.180 C 
ATOM     38  C   UNL     1      -5.879  -1.096   0.000  0.00  0.00    +0.214 C 
ATOM     39  C   UNL     1      -5.153  -2.016   0.000  0.00  0.00    +0.220 C 
ATOM     40  O   UNL     1      -5.153  -1.144   0.000  0.00  0.00    -0.217 OA
ATOM     41  O   UNL     1      -5.879  -2.174   0.000  0.00  0.00    -0.218 OA
ATOM     42  C   UNL     1      -3.784  -2.016   0.000  0.00  0.00    +0.241 C 
ATOM     43  O   UNL     1      -3.784  -2.797   0.000  0.00  0.00    -0.215 OA
ENDBRANCH  34  35
ENDBRANCH  18  34
BRANCH  15  44
ATOM     44  O   UNL     1      -0.121  -1.768   0.000  0.00  0.00    -0.331 OA
BRANCH  44  45
ATOM     45  C   UNL     1      -0.121  -3.252   0.000  0.00  0.00    +0.269 C 
ATOM     46  O   UNL     1      -0.939  -2.174   0.000  0.00  0.00    -0.326 OA
ATOM     47  C   UNL     1      -2.434  -2.174   0.000  0.00  0.00    +0.183 C 
ATOM     48  C   UNL     1      -3.215  -3.252   0.000  0.00  0.00    +0.214 C 
ATOM     49  C   UNL     1      -2.434  -4.250   0.000  0.00  0.00    +0.220 C 
ATOM     50  O   UNL     1      -2.416  -3.264   0.000  0.00  0.00    -0.217 OA
ATOM     51  O   UNL     1      -3.203  -4.511   0.000  0.00  0.00    -0.218 OA
ATOM     52  C   UNL     1      -0.939  -4.250   0.000  0.00  0.00    +0.241 C 
ATOM     53  O   UNL     1      -0.939  -5.195   0.000  0.00  0.00    -0.215 OA
BRANCH  47  54
ATOM     54  C   UNL     1      -2.434  -1.532   0.000  0.00  0.00    +0.214 C 
ATOM     55  O   UNL     1      -1.532  -1.374   0.000  0.00  0.00    -0.218 OA
ENDBRANCH  47  54
ENDBRANCH  44  45
ENDBRANCH  15  44
TORSDOF 7
ENDMDL
MODEL        7
REMARK  Name = 3-(2-oxo-2,3-dihydro-1,3-benzothiazol-3-yl)propanoic acid
REMARK  3 active torsions:
REMARK  status: ('A' for Active; 'I' for Inactive)
REMARK    1  A    between atoms: N_2  and  C_6
REMARK    2  A    between atoms: C_6  and  C_7
REMARK    3  A    between atoms: C_7  and  C_8
REMARK                            x       y       z     vdW  Elec       q    Type
REMARK                         _______ _______ _______ _____ _____    ______ ____
ROOT
ATOM      1  C   UNL     1       0.596  -1.321   0.000  0.00  0.00    +0.292 A 
ATOM      2  O   UNL     1       1.591  -1.321   0.000  0.00  0.00    -0.259 OA
ATOM      3  S   UNL     1       0.038  -2.124   0.000  0.00  0.00    -0.026 S 
ATOM      4  C   UNL     1      -0.939  -1.820   0.000  0.00  0.00    +0.050 A 
ATOM      5  C   UNL     1      -0.939  -0.817   0.000  0.00  0.00    +0.069 A 
ATOM      6  C   UNL     1      -1.809  -0.308   0.000  0.00  0.00    +0.018 A 
ATOM      7  C   UNL     1      -2.670  -0.817   0.000  0.00  0.00    +0.002 A 
ATOM      8  C   UNL     1      -2.670  -1.820   0.000  0.00  0.00    +0.001 A 
ATOM      9  C   UNL     1      -1.809  -2.325   0.000  0.00  0.00    +0.008 A 
ATOM     10  N   UNL     1       0.038  -0.518   0.000  0.00  0.00    -0.289 N 
ENDROOT
BRANCH  10  11
ATOM     11  C   UNL     1       0.381   0.415   0.000  0.00  0.00    +0.121 C 
BRANCH  11  12
ATOM     12  C   UNL     1       1.350   0.576   0.000  0.00  0.00    +0.139 C 
BRANCH  12  13
ATOM     13  C   UNL     1       1.698   1.512   0.000  0.00  0.00    +0.367 C 
ATOM     14  O   UNL     1       2.670   1.584   0.000  0.00  0.00    -0.246 OA
ATOM     15  O   UNL     1       1.055   2.325   0.000  0.00  0.00    -0.246 OA
ENDBRANCH  12  13
ENDBRANCH  11  12
ENDBRANCH  10  11
TORSDOF 3
ENDMDL
MODEL        8
REMARK  Name = 8,8-dimethyl-10-[(3-methylbut-2-enoyl)oxy]-2-oxo-2H,8H,9H,10H-pyrano[2,3-h]chromen-9-yl 3-methylbut-2-enoate
REMARK  6 active torsions:
REMARK  status: ('A' for Active; 'I' for Inactive)
REMARK    1  A    between atoms: C_2  and  O_12
REMARK    2  A    between atoms: C_4  and  O_13
REMARK    3  A    between atoms: C_10  and  O_12
REMARK    4  A    between atoms: C_10  and  C_17
REMARK    5  A    between atoms: C_11  and  O_13
REMARK    6  A    between atoms: C_11  and  C_16
REMARK                            x       y       z     vdW  Elec       q    Type
REMARK                         _______ _______ _______ _____ _____    ______ ____
ROOT
ATOM      1  C   UNL     1      -0.039   1.709   0.000  0.00  0.00    +0.090 A 
ATOM      2  C   UNL     1      -0.902   2.191   0.000  0.00  0.00    +0.141 A 
ATOM      3  C   UNL     1      -0.902   3.188   0.000  0.00  0.00    +0.037 A 
ATOM      4  C   UNL     1      -0.039   3.670   0.000  0.00  0.00    +0.006 A 
ATOM      5  C   UNL     1       0.824   3.188   0.000  0.00  0.00    +0.035 A 
ATOM      6  C   UNL     1       1.681   3.670   0.000  0.00  0.00    +0.010 A 
ATOM      7  C   UNL     1       2.543   3.188   0.000  0.00  0.00    +0.082 A 
ATOM      8  C   UNL     1       2.543   2.219   0.000  0.00  0.00    +0.346 A 
ATOM      9  O   UNL     1       3.429   1.759   0.000  0.00  0.00    -0.244 OA
ATOM     10  O   UNL     1       1.681   1.731   0.000  0.00  0.00    -0.421 OA
ATOM     11  O   UNL     1      -1.759   1.709   0.000  0.00  0.00    -0.479 OA
ATOM     12  C   UNL     1      -1.759   0.712   0.000  0.00  0.00    +0.174 C 
ATOM     13  C   UNL     1      -0.902   0.252   0.000  0.00  0.00    +0.249 C 
ATOM     14  C   UNL     1      -2.594   0.202   0.000  0.00  0.00    +0.048 C 
ATOM     15  C   UNL     1      -2.700   0.952   0.000  0.00  0.00    +0.048 C 
ATOM     16  C   UNL     1       0.824   2.219   0.000  0.00  0.00    +0.151 A 
ATOM     17  C   UNL     1      -0.039   0.740   0.000  0.00  0.00    +0.240 C 
ENDROOT
BRANCH  13  18
ATOM     18  O   UNL     1      -0.902  -0.740   0.000  0.00  0.00    -0.441 OA
BRANCH  18  19
ATOM     19  C   UNL     1      -1.731  -1.227   0.000  0.00  0.00    +0.341 C 
ATOM     20  O   UNL     1      -2.594  -0.740   0.000  0.00  0.00    -0.245 OA
BRANCH  19  21
ATOM     21  C   UNL     1      -1.731  -2.219   0.000  0.00  0.00    +0.073 C 
ATOM     22  C   UNL     1      -2.594  -2.706   0.000  0.00  0.00    -0.037 C 
ATOM     23  C   UNL     1      -3.429  -2.219   0.000  0.00  0.00    +0.027 C 
ATOM     24  C   UNL     1      -2.594  -3.670   0.000  0.00  0.00    +0.027 C 
ENDBRANCH  19  21
ENDBRANCH  18  19
ENDBRANCH  13  18
BRANCH  17  25
ATOM     25  O   UNL     1       0.807   0.269   0.000  0.00  0.00    -0.440 OA
BRANCH  25  26
ATOM     26  C   UNL     1       0.824  -0.700   0.000  0.00  0.00    +0.341 C 
ATOM     27  O   UNL     1       1.681  -1.249   0.000  0.00  0.00    -0.245 OA
BRANCH  26  28
ATOM     28  C   UNL     1       0.017  -1.199   0.000  0.00  0.00    +0.073 C 
ATOM     29  C   UNL     1       0.230  -2.325   0.000  0.00  0.00    -0.037 C 
ATOM     30  C   UNL     1       1.305  -2.773   0.000  0.00  0.00    +0.027 C 
ATOM     31  C   UNL     1      -0.700  -3.109   0.000  0.00  0.00    +0.027 C 
ENDBRANCH  26  28
ENDBRANCH  25  26
ENDBRANCH  17  25
TORSDOF 6
ENDMDL
MODEL        9
REMARK  Name = 3-(2,3-dimethyloxirane-2-carbonyloxy)-2,2-dimethyl-8-oxo-2H,3H,4H,8H-pyrano[3,2-g]chromen-4-yl 2,3-dimethyloxirane-2-carboxylate
REMARK  6 active torsions:
REMARK  status: ('A' for Active; 'I' for Inactive)
REMARK    1  A    between atoms: C_1  and  C_8
REMARK    2  A    between atoms: C_2  and  C_9
REMARK    3  A    between atoms: C_5  and  O_15
REMARK    4  A    between atoms: C_7  and  O_16
REMARK    5  A    between atoms: C_8  and  O_15
REMARK    6  A    between atoms: C_9  and  O_16
REMARK                            x       y       z     vdW  Elec       q    Type
REMARK                         _______ _______ _______ _____ _____    ______ ____
ROOT
ATOM      1  C   UNL     1      -0.901  -0.795   0.000  0.00  0.00    +0.237 C 
ATOM      2  C   UNL     1      -1.774  -1.305   0.000  0.00  0.00    +0.249 C 
ATOM      3  C   UNL     1      -1.774  -2.332   0.000  0.00  0.00    +0.174 C 
ATOM      4  C   UNL     1      -2.642  -2.841   0.000  0.00  0.00    +0.048 C 
ATOM      5  C   UNL     1      -1.755  -3.250   0.000  0.00  0.00    +0.048 C 
ATOM      6  O   UNL     1      -0.901  -2.841   0.000  0.00  0.00    -0.479 OA
ATOM      7  C   UNL     1      -0.021  -2.332   0.000  0.00  0.00    +0.141 A 
ATOM      8  C   UNL     1       0.878  -2.826   0.000  0.00  0.00    +0.074 A 
ATOM      9  C   UNL     1       1.785  -2.332   0.000  0.00  0.00    +0.152 A 
ATOM     10  O   UNL     1       2.685  -2.826   0.000  0.00  0.00    -0.421 OA
ATOM     11  C   UNL     1       3.546  -2.332   0.000  0.00  0.00    +0.346 A 
ATOM     12  O   UNL     1       4.414  -2.826   0.000  0.00  0.00    -0.244 OA
ATOM     13  C   UNL     1       3.546  -1.305   0.000  0.00  0.00    +0.082 A 
ATOM     14  C   UNL     1       2.685  -0.795   0.000  0.00  0.00    +0.010 A 
ATOM     15  C   UNL     1       1.785  -1.305   0.000  0.00  0.00    +0.035 A 
ATOM     16  C   UNL     1       0.878  -0.795   0.000  0.00  0.00    +0.005 A 
ATOM     17  C   UNL     1      -0.021  -1.305   0.000  0.00  0.00    +0.055 A 
ENDROOT
BRANCH   1  18
ATOM     18  O   UNL     1      -0.901   0.216   0.000  0.00  0.00    -0.442 OA
BRANCH  18  19
ATOM     19  C   UNL     1      -0.013   0.741   0.000  0.00  0.00    +0.344 C 
ATOM     20  O   UNL     1       0.867   0.251   0.000  0.00  0.00    -0.247 OA
BRANCH  19  21
ATOM     21  C   UNL     1      -0.013   1.753   0.000  0.00  0.00    +0.200 C 
ATOM     22  C   UNL     1      -0.975   1.753   0.000  0.00  0.00    +0.043 C 
ATOM     23  C   UNL     1       0.878   2.243   0.000  0.00  0.00    +0.171 C 
ATOM     24  C   UNL     1       1.747   1.726   0.000  0.00  0.00    +0.028 C 
ATOM     25  O   UNL     1      -0.021   2.548   0.000  0.00  0.00    -0.352 OA
ENDBRANCH  19  21
ENDBRANCH  18  19
ENDBRANCH   1  18
BRANCH   2  26
ATOM     26  O   UNL     1      -2.642  -0.795   0.000  0.00  0.00    -0.443 OA
BRANCH  26  27
ATOM     27  C   UNL     1      -2.642   0.232   0.000  0.00  0.00    +0.344 C 
ATOM     28  O   UNL     1      -1.755   0.741   0.000  0.00  0.00    -0.247 OA
BRANCH  27  29
ATOM     29  C   UNL     1      -3.522   0.741   0.000  0.00  0.00    +0.200 C 
ATOM     30  C   UNL     1      -4.376   0.216   0.000  0.00  0.00    +0.043 C 
ATOM     31  C   UNL     1      -3.522   1.772   0.000  0.00  0.00    +0.171 C 
ATOM     32  C   UNL     1      -2.642   2.281   0.000  0.00  0.00    +0.028 C 
ATOM     33  O   UNL     1      -2.820   1.448   0.000  0.00  0.00    -0.352 OA
ENDBRANCH  27  29
ENDBRANCH  26  27
ENDBRANCH   2  26
TORSDOF 6
ENDMDL
MODEL       10
REMARK  Name = 11-ETHYL-7,16-DIHYDROXY-13-METHYL-6-METHYLIDENE-11-AZAHEXACYCLO[7.7.2.1^(5,8).0^(1,10).0^(2,8).0^(13,17)]NONADECAN-4-ONE
REMARK  1 active torsions:
REMARK  status: ('A' for Active; 'I' for Inactive)
REMARK    1  A    between atoms: N_7  and  C_23
REMARK                            x       y       z     vdW  Elec       q    Type
REMARK                         _______ _______ _______ _____ _____    ______ ____
ROOT
ATOM      1  C   UNL     1      -0.729  -0.277   0.000  0.00  0.00    +0.042 C 
ATOM      2  C   UNL     1      -1.484   0.169   0.000  0.00  0.00    +0.153 C 
ATOM      3  O   UNL     1      -1.484   1.036   0.000  0.00  0.00    -0.223 OA
ATOM      4  C   UNL     1      -2.233  -0.277   0.000  0.00  0.00    +0.033 C 
ATOM      5  C   UNL     1      -2.233  -1.144   0.000  0.00  0.00    +0.004 C 
ATOM      6  C   UNL     1      -1.484  -1.577   0.000  0.00  0.00    +0.015 C 
ATOM      7  C   UNL     1      -1.054  -2.332   0.000  0.00  0.00    +0.001 C 
ATOM      8  C   UNL     1      -2.109  -2.194   0.000  0.00  0.00    +0.072 C 
ATOM      9  N   UNL     1      -1.542  -0.669   0.000  0.00  0.00    -0.274 NA
ATOM     10  C   UNL     1      -0.734  -1.144   0.000  0.00  0.00    +0.005 C 
ATOM     11  C   UNL     1       0.008  -1.581   0.000  0.00  0.00    +0.002 C 
ATOM     12  C   UNL     1       0.771  -1.152   0.000  0.00  0.00    +0.017 C 
ATOM     13  C   UNL     1       0.771  -0.290   0.000  0.00  0.00    +0.034 C 
ATOM     14  C   UNL     1       1.534   0.144   0.000  0.00  0.00    +0.014 C 
ATOM     15  C   UNL     1       1.546   1.019   0.000  0.00  0.00    +0.078 C 
ATOM     16  C   UNL     1       2.417   1.019   0.000  0.00  0.00    -0.008 C 
ATOM     17  C   UNL     1       3.034   1.623   0.000  0.00  0.00    -0.006 C 
ATOM     18  C   UNL     1       0.792   1.461   0.000  0.00  0.00    +0.154 C 
ATOM     19  O   UNL     1       0.804   2.332   0.000  0.00  0.00    -0.296 OA
ATOM     20  C   UNL     1       0.021   1.031   0.000  0.00  0.00    +0.065 C 
ATOM     21  C   UNL     1       2.371  -0.306   0.000  0.00  0.00    +0.171 C 
ATOM     22  O   UNL     1       2.979  -0.931   0.000  0.00  0.00    -0.219 OA
ATOM     23  C   UNL     1       0.021   0.161   0.000  0.00  0.00    +0.014 C 
ATOM     24  C   UNL     1      -0.742   0.594   0.000  0.00  0.00    +0.060 C 
ENDROOT
BRANCH   9  25
ATOM     25  C   UNL     1      -2.417  -0.669   0.000  0.00  0.00    +0.072 C 
ATOM     26  C   UNL     1      -3.034  -1.281   0.000  0.00  0.00    +0.019 C 
ENDBRANCH   9  25
TORSDOF 1
ENDMDL
MODEL       11
REMARK  Name = {[(9Z)-8,8-dimethyl-2-oxo-2H,8H,9H,10H-pyrano[2,3-h]chromen-9-ylidene]amino}urea
REMARK  1 active torsions:
REMARK  status: ('A' for Active; 'I' for Inactive)
REMARK    1  A    between atoms: N_9  and  N_14
REMARK                            x       y       z     vdW  Elec       q    Type
REMARK                         _______ _______ _______ _____ _____    ______ ____
ROOT
ATOM      1  C   UNL     1      -0.376   1.242   0.000  0.00  0.00    +0.052 A 
ATOM      2  C   UNL     1      -0.376   0.268   0.000  0.00  0.00    +0.079 C 
ATOM      3  C   UNL     1      -1.219  -0.268   0.000  0.00  0.00    +0.096 C 
ATOM      4  N   UNL     1      -1.219  -1.268   0.000  0.00  0.00    -0.160 NA
ATOM      5  C   UNL     1      -2.102   0.268   0.000  0.00  0.00    +0.166 C 
ATOM      6  O   UNL     1      -2.069   1.268   0.000  0.00  0.00    -0.478 OA
ATOM      7  C   UNL     1      -3.076   0.425   0.000  0.00  0.00    +0.050 C 
ATOM      8  C   UNL     1      -2.729  -0.549   0.000  0.00  0.00    +0.050 C 
ATOM      9  C   UNL     1      -1.219   1.739   0.000  0.00  0.00    +0.138 A 
ATOM     10  C   UNL     1      -1.219   2.746   0.000  0.00  0.00    +0.037 A 
ATOM     11  C   UNL     1      -0.376   3.249   0.000  0.00  0.00    +0.006 A 
ATOM     12  C   UNL     1       0.507   2.746   0.000  0.00  0.00    +0.035 A 
ATOM     13  C   UNL     1       1.383   3.249   0.000  0.00  0.00    +0.010 A 
ATOM     14  C   UNL     1       2.232   2.746   0.000  0.00  0.00    +0.082 A 
ATOM     15  C   UNL     1       2.200   1.713   0.000  0.00  0.00    +0.346 A 
ATOM     16  O   UNL     1       3.076   1.177   0.000  0.00  0.00    -0.244 OA
ATOM     17  O   UNL     1       1.350   1.242   0.000  0.00  0.00    -0.421 OA
ATOM     18  C   UNL     1       0.507   1.739   0.000  0.00  0.00    +0.148 A 
ENDROOT
BRANCH   4  19
ATOM     19  N   UNL     1      -2.102  -1.772   0.000  0.00  0.00    -0.060 NA
ATOM     20  C   UNL     1      -2.102  -2.745   0.000  0.00  0.00    +0.380 C 
ATOM     21  N   UNL     1      -1.219  -3.249   0.000  0.00  0.00    -0.066 NA
ATOM     22  O   UNL     1      -2.951  -3.249   0.000  0.00  0.00    -0.246 OA
ENDBRANCH   4  19
TORSDOF 1
ENDMDL
MODEL       12
REMARK  Name = 1-{[(2,2-dimethylpropanoyl)oxy]methyl}-5-methyl-decahydroquinolizin-5-ium
REMARK  4 active torsions:
REMARK  status: ('A' for Active; 'I' for Inactive)
REMARK    1  A    between atoms: C_2  and  C_4
REMARK    2  A    between atoms: C_2  and  O_6
REMARK    3  A    between atoms: C_5  and  C_7
REMARK    4  A    between atoms: O_6  and  C_7
REMARK                            x       y       z     vdW  Elec       q    Type
REMARK                         _______ _______ _______ _____ _____    ______ ____
ROOT
ATOM      1  N   UNL     1      -1.291  -1.511   0.000  0.00  0.00    +0.297 N 
ATOM      2  C   UNL     1      -2.164  -2.010   0.000  0.00  0.00    +0.108 C 
ATOM      3  C   UNL     1      -3.027  -1.511   0.000  0.00  0.00    +0.061 C 
ATOM      4  C   UNL     1      -3.027  -0.502   0.000  0.00  0.00    +0.012 C 
ATOM      5  C   UNL     1      -2.164  -0.003   0.000  0.00  0.00    +0.055 C 
ATOM      6  C   UNL     1      -1.301  -2.499   0.000  0.00  0.00    +0.170 C 
ATOM      7  C   UNL     1      -0.429  -2.010   0.000  0.00  0.00    +0.108 C 
ATOM      8  C   UNL     1       0.439  -1.506   0.000  0.00  0.00    +0.061 C 
ATOM      9  C   UNL     1       0.434  -0.502   0.000  0.00  0.00    +0.016 C 
ATOM     10  C   UNL     1      -0.429  -0.003   0.000  0.00  0.00    +0.093 C 
ATOM     11  C   UNL     1      -1.296  -0.502   0.000  0.00  0.00    +0.062 C 
ENDROOT
BRANCH  10  12
ATOM     12  C   UNL     1      -0.434   1.001   0.000  0.00  0.00    +0.214 C 
BRANCH  12  13
ATOM     13  O   UNL     1       0.429   1.501   0.000  0.00  0.00    -0.448 OA
BRANCH  13  14
ATOM     14  C   UNL     1       1.296   1.001   0.000  0.00  0.00    +0.316 C 
ATOM     15  O   UNL     1       1.296   0.003   0.000  0.00  0.00    -0.250 OA
BRANCH  14  16
ATOM     16  C   UNL     1       2.159   1.501   0.000  0.00  0.00    +0.090 C 
ATOM     17  C   UNL     1       1.196   1.758   0.000  0.00  0.00    +0.011 C 
ATOM     18  C   UNL     1       3.027   1.006   0.000  0.00  0.00    +0.011 C 
ATOM     19  C   UNL     1       2.159   2.499   0.000  0.00  0.00    +0.011 C 
ENDBRANCH  14  16
ENDBRANCH  13  14
ENDBRANCH  12  13
ENDBRANCH  10  12
TORSDOF 4
ENDMDL
MODEL       13
REMARK  Name = 3,3,6a,8,10b-pentamethyl-decahydro-1H-dispiro[naphtho[2,1-d][1,3]dioxine-7,2':5',3''-bis(oxolane)]
REMARK  0 active torsions:
REMARK  status: ('A' for Active; 'I' for Inactive)
REMARK                            x       y       z     vdW  Elec       q    Type
REMARK                         _______ _______ _______ _____ _____    ______ ____
ROOT
ATOM      1  C   UNL     1       0.445  -0.025   0.000  0.00  0.00    +0.023 C 
ATOM      2  C   UNL     1       0.279   0.890   0.000  0.00  0.00    +0.002 C 
ATOM      3  C   UNL     1      -0.428   0.480   0.000  0.00  0.00    +0.005 C 
ATOM      4  C   UNL     1      -1.294  -0.025   0.000  0.00  0.00    +0.030 C 
ATOM      5  C   UNL     1      -1.294  -1.039   0.000  0.00  0.00    +0.120 C 
ATOM      6  C   UNL     1      -0.428  -1.544   0.000  0.00  0.00    +0.053 C 
ATOM      7  C   UNL     1       0.408  -2.082   0.000  0.00  0.00    +0.005 C 
ATOM      8  C   UNL     1      -0.437  -2.559   0.000  0.00  0.00    +0.147 C 
ATOM      9  O   UNL     1      -1.302  -3.068   0.000  0.00  0.00    -0.334 OA
ATOM     10  C   UNL     1      -2.176  -2.550   0.000  0.00  0.00    +0.187 C 
ATOM     11  C   UNL     1      -3.049  -2.062   0.000  0.00  0.00    +0.061 C 
ATOM     12  C   UNL     1      -2.188  -3.544   0.000  0.00  0.00    +0.061 C 
ATOM     13  O   UNL     1      -2.167  -1.528   0.000  0.00  0.00    -0.337 OA
ATOM     14  C   UNL     1       0.445  -1.039   0.000  0.00  0.00    +0.007 C 
ATOM     15  C   UNL     1       1.310  -1.544   0.000  0.00  0.00    +0.000 C 
ATOM     16  C   UNL     1       2.184  -1.039   0.000  0.00  0.00    +0.002 C 
ATOM     17  C   UNL     1       2.184  -0.025   0.000  0.00  0.00    +0.025 C 
ATOM     18  C   UNL     1       3.049   0.472   0.000  0.00  0.00    +0.002 C 
ATOM     19  C   UNL     1       1.290   0.443   0.000  0.00  0.00    +0.092 C 
ATOM     20  C   UNL     1       0.515   0.998   0.000  0.00  0.00    +0.030 C 
ATOM     21  C   UNL     1       0.785   1.983   0.000  0.00  0.00    +0.032 C 
ATOM     22  C   UNL     1       1.770   2.012   0.000  0.00  0.00    +0.122 C 
ATOM     23  C   UNL     1       1.410   2.886   0.000  0.00  0.00    +0.169 C 
ATOM     24  O   UNL     1       2.167   3.544   0.000  0.00  0.00    -0.351 OA
ATOM     25  C   UNL     1       3.012   3.014   0.000  0.00  0.00    +0.145 C 
ATOM     26  C   UNL     1       2.792   2.049   0.000  0.00  0.00    +0.062 C 
ATOM     27  O   UNL     1       2.126   1.056   0.000  0.00  0.00    -0.361 OA
ENDROOT
TORSDOF 0
ENDMDL
MODEL       14
REMARK  Name = 8,8-dimethyl-8,9-dihydro-2H-pyrano[2',3':5,6]chromeno[3,4-b]indol-2-one
REMARK  0 active torsions:
REMARK  status: ('A' for Active; 'I' for Inactive)
REMARK                            x       y       z     vdW  Elec       q    Type
REMARK                         _______ _______ _______ _____ _____    ______ ____
ROOT
ATOM      1  C   UNL     1      -0.360  -1.584   0.000  0.00  0.00    +0.095 A 
ATOM      2  C   UNL     1      -1.016  -2.136   0.000  0.00  0.00    +0.168 C 
ATOM      3  C   UNL     1      -0.385  -2.912   0.000  0.00  0.00    +0.050 C 
ATOM      4  C   UNL     1      -1.683  -2.912   0.000  0.00  0.00    +0.050 C 
ATOM      5  O   UNL     1      -1.881  -1.638   0.000  0.00  0.00    -0.477 OA
ATOM      6  C   UNL     1      -1.911  -0.628   0.000  0.00  0.00    +0.142 A 
ATOM      7  C   UNL     1      -1.046  -0.117   0.000  0.00  0.00    +0.070 A 
ATOM      8  C   UNL     1      -1.046   0.892   0.000  0.00  0.00    +0.152 A 
ATOM      9  C   UNL     1      -1.911   1.415   0.000  0.00  0.00    +0.035 A 
ATOM     10  C   UNL     1      -2.812   0.868   0.000  0.00  0.00    +0.006 A 
ATOM     11  C   UNL     1      -1.911   2.437   0.000  0.00  0.00    +0.010 A 
ATOM     12  C   UNL     1      -1.046   2.912   0.000  0.00  0.00    +0.082 A 
ATOM     13  C   UNL     1      -0.150   2.401   0.000  0.00  0.00    +0.346 A 
ATOM     14  O   UNL     1       0.739   2.857   0.000  0.00  0.00    -0.244 OA
ATOM     15  O   UNL     1      -0.180   1.391   0.000  0.00  0.00    -0.421 OA
ATOM     16  C   UNL     1      -2.776  -0.117   0.000  0.00  0.00    +0.037 A 
ATOM     17  N   UNL     1       0.505  -2.070   0.000  0.00  0.00    -0.246 NA
ATOM     18  C   UNL     1       1.226  -1.415   0.000  0.00  0.00    +0.081 A 
ATOM     19  C   UNL     1       0.829  -0.484   0.000  0.00  0.00    +0.019 A 
ATOM     20  C   UNL     1       1.406   0.316   0.000  0.00  0.00    +0.002 A 
ATOM     21  C   UNL     1       2.416   0.201   0.000  0.00  0.00    +0.000 A 
ATOM     22  C   UNL     1       2.812  -0.718   0.000  0.00  0.00    +0.002 A 
ATOM     23  C   UNL     1       2.212  -1.530   0.000  0.00  0.00    +0.019 A 
ATOM     24  C   UNL     1      -0.150  -0.604   0.000  0.00  0.00    +0.024 A 
ENDROOT
TORSDOF 0
ENDMDL
MODEL       15
REMARK  Name = (5R,9R)-20-isopropyl-5,9-dimethyl-14,17-dioxopentacyclo[10.6.2.0~1,10~.0~4,9~.0~13,18~]icosa-15,19-diene-5-carboxylic acid
REMARK  2 active torsions:
REMARK  status: ('A' for Active; 'I' for Inactive)
REMARK    1  A    between atoms: C_5  and  C_20
REMARK    2  A    between atoms: C_10  and  C_14
REMARK                            x       y       z     vdW  Elec       q    Type
REMARK                         _______ _______ _______ _____ _____    ______ ____
ROOT
ATOM      1  C   UNL     1       0.396  -0.689   0.000  0.00  0.00    +0.025 C 
ATOM      2  C   UNL     1       0.396  -1.628   0.000  0.00  0.00    +0.004 C 
ATOM      3  C   UNL     1      -0.417  -2.107   0.000  0.00  0.00    +0.001 C 
ATOM      4  C   UNL     1      -1.230  -1.628   0.000  0.00  0.00    +0.010 C 
ATOM      5  C   UNL     1      -1.230  -0.689   0.000  0.00  0.00    +0.001 C 
ATOM      6  C   UNL     1      -1.243   0.198   0.000  0.00  0.00    +0.000 C 
ATOM      7  C   UNL     1      -2.026  -0.219   0.000  0.00  0.00    +0.000 C 
ATOM      8  C   UNL     1      -2.848  -0.689   0.000  0.00  0.00    +0.001 C 
ATOM      9  C   UNL     1      -2.848  -1.628   0.000  0.00  0.00    +0.011 C 
ATOM     10  C   UNL     1      -2.026  -2.107   0.000  0.00  0.00    +0.094 C 
ATOM     11  C   UNL     1      -2.630  -2.724   0.000  0.00  0.00    +0.011 C 
ATOM     12  C   UNL     1      -0.669   1.793   0.000  0.00  0.00    -0.035 C 
ATOM     13  C   UNL     1       0.730   2.128   0.000  0.00  0.00    -0.049 C 
ATOM     14  C   UNL     1       0.396   1.198   0.000  0.00  0.00    +0.026 C 
ATOM     15  C   UNL     1      -0.417   0.728   0.000  0.00  0.00    +0.005 C 
ATOM     16  C   UNL     1       1.222   0.728   0.000  0.00  0.00    +0.073 C 
ATOM     17  C   UNL     1       2.026   1.198   0.000  0.00  0.00    +0.174 C 
ATOM     18  C   UNL     1       2.848   0.728   0.000  0.00  0.00    +0.040 C 
ATOM     19  C   UNL     1       2.848  -0.219   0.000  0.00  0.00    +0.040 C 
ATOM     20  C   UNL     1       2.026  -0.689   0.000  0.00  0.00    +0.174 C 
ATOM     21  O   UNL     1       2.026  -1.628   0.000  0.00  0.00    -0.291 OA
ATOM     22  O   UNL     1       2.026   2.137   0.000  0.00  0.00    -0.291 OA
ATOM     23  C   UNL     1       1.222  -0.219   0.000  0.00  0.00    +0.073 C 
ATOM     24  C   UNL     1      -0.417  -0.219   0.000  0.00  0.00    +0.004 C 
ENDROOT
BRANCH  10  25
ATOM     25  C   UNL     1      -1.522  -2.754   0.000  0.00  0.00    +0.364 C 
ATOM     26  O   UNL     1      -0.522  -2.754   0.000  0.00  0.00    -0.246 OA
ATOM     27  O   UNL     1      -2.056  -3.580   0.000  0.00  0.00    -0.246 OA
ENDBRANCH  10  25
BRANCH  13  28
ATOM     28  C   UNL     1       0.948   2.919   0.000  0.00  0.00    +0.018 C 
ATOM     29  C   UNL     1       0.283   3.580   0.000  0.00  0.00    +0.004 C 
ATOM     30  C   UNL     1       1.848   3.058   0.000  0.00  0.00    +0.004 C 
ENDBRANCH  13  28
TORSDOF 2
ENDMDL
MODEL       16
REMARK  Name = (7R,10S,11S,14R,17S)-12-ethyl-7,17-dihydroxy-14-methyl-6-methylene-4-oxo-12-azoniahexacyclo[8.7.1.1~5,8~.0~1,11~.0~2,8~.0~14,18~]nonadecan-12-olate
REMARK  1 active torsions:
REMARK  status: ('A' for Active; 'I' for Inactive)
REMARK    1  A    between atoms: N_2  and  C_23
REMARK                            x       y       z     vdW  Elec       q    Type
REMARK                         _______ _______ _______ _____ _____    ______ ____
ROOT
ATOM      1  C   UNL     1      -0.538  -0.180   0.000  0.00  0.00    +0.073 C 
ATOM      2  C   UNL     1      -1.303   0.259   0.000  0.00  0.00    +0.157 C 
ATOM      3  O   UNL     1      -1.313   1.108   0.000  0.00  0.00    -0.223 OA
ATOM      4  C   UNL     1      -2.038  -0.171   0.000  0.00  0.00    +0.033 C 
ATOM      5  C   UNL     1      -2.045  -1.030   0.000  0.00  0.00    +0.008 C 
ATOM      6  C   UNL     1      -1.287  -1.476   0.000  0.00  0.00    +0.050 C 
ATOM      7  C   UNL     1      -1.303  -2.328   0.000  0.00  0.00    +0.006 C 
ATOM      8  C   UNL     1      -2.123  -1.967   0.000  0.00  0.00    +0.104 C 
ATOM      9  N   UNL     1      -1.443  -0.392   0.000  0.00  0.00    +0.254 N 
ATOM     10  O   UNL     1      -0.906  -0.890   0.000  0.00  0.00    -0.772 OA
ATOM     11  C   UNL     1       0.281   0.281   0.000  0.00  0.00    +0.018 C 
ATOM     12  C   UNL     1       0.281   1.046   0.000  0.00  0.00    +0.065 C 
ATOM     13  C   UNL     1       1.001   1.414   0.000  0.00  0.00    +0.154 C 
ATOM     14  O   UNL     1       1.001   2.328   0.000  0.00  0.00    -0.296 OA
ATOM     15  C   UNL     1       1.664   1.030   0.000  0.00  0.00    +0.078 C 
ATOM     16  C   UNL     1       2.530   1.030   0.000  0.00  0.00    -0.008 C 
ATOM     17  C   UNL     1       3.249   1.498   0.000  0.00  0.00    -0.006 C 
ATOM     18  C   UNL     1       2.530  -0.148   0.000  0.00  0.00    +0.171 C 
ATOM     19  O   UNL     1       3.178  -0.744   0.000  0.00  0.00    -0.219 OA
ATOM     20  C   UNL     1       1.664   0.265   0.000  0.00  0.00    +0.014 C 
ATOM     21  C   UNL     1       1.046  -0.148   0.000  0.00  0.00    +0.033 C 
ATOM     22  C   UNL     1       1.046  -1.046   0.000  0.00  0.00    +0.008 C 
ATOM     23  C   UNL     1       0.298  -1.531   0.000  0.00  0.00    +0.050 C 
ATOM     24  C   UNL     1      -0.538  -1.023   0.000  0.00  0.00    +0.019 C 
ATOM     25  C   UNL     1      -0.538   0.711   0.000  0.00  0.00    +0.056 C 
ENDROOT
BRANCH   9  26
ATOM     26  C   UNL     1      -2.732  -0.421   0.000  0.00  0.00    +0.104 C 
ATOM     27  C   UNL     1      -3.249  -1.368   0.000  0.00  0.00    +0.067 C 
ENDBRANCH   9  26
TORSDOF 1
ENDMDL
MODEL       17
REMARK  Name = 1-[(acetyloxy)methyl]-5-methyl-decahydroquinolizin-5-ium
REMARK  3 active torsions:
REMARK  status: ('A' for Active; 'I' for Inactive)
REMARK    1  A    between atoms: C_3  and  C_5
REMARK    2  A    between atoms: C_4  and  O_6
REMARK    3  A    between atoms: C_5  and  O_6
REMARK                            x       y       z     vdW  Elec       q    Type
REMARK                         _______ _______ _______ _____ _____    ______ ____
ROOT
ATOM      1  N   UNL     1      -0.819  -1.066   0.000  0.00  0.00    +0.297 N 
ATOM      2  C   UNL     1      -1.691  -1.565   0.000  0.00  0.00    +0.108 C 
ATOM      3  C   UNL     1      -2.558  -1.066   0.000  0.00  0.00    +0.061 C 
ATOM      4  C   UNL     1      -2.558  -0.058   0.000  0.00  0.00    +0.012 C 
ATOM      5  C   UNL     1      -1.691   0.441   0.000  0.00  0.00    +0.055 C 
ATOM      6  C   UNL     1      -0.824  -2.054   0.000  0.00  0.00    +0.170 C 
ATOM      7  C   UNL     1       0.043  -1.565   0.000  0.00  0.00    +0.108 C 
ATOM      8  C   UNL     1       0.910  -1.061   0.000  0.00  0.00    +0.061 C 
ATOM      9  C   UNL     1       0.905  -0.058   0.000  0.00  0.00    +0.016 C 
ATOM     10  C   UNL     1       0.043   0.441   0.000  0.00  0.00    +0.093 C 
ATOM     11  C   UNL     1      -0.824  -0.058   0.000  0.00  0.00    +0.062 C 
ENDROOT
BRANCH  10  12
ATOM     12  C   UNL     1       0.038   1.444   0.000  0.00  0.00    +0.214 C 
BRANCH  12  13
ATOM     13  O   UNL     1       0.900   1.943   0.000  0.00  0.00    -0.448 OA
BRANCH  13  14
ATOM     14  C   UNL     1       1.767   1.444   0.000  0.00  0.00    +0.318 C 
ATOM     15  C   UNL     1       2.558   2.054   0.000  0.00  0.00    +0.121 C 
ATOM     16  O   UNL     1       2.024   0.486   0.000  0.00  0.00    -0.250 OA
ENDBRANCH  13  14
ENDBRANCH  12  13
ENDBRANCH  10  12
TORSDOF 3
ENDMDL
MODEL       18
REMARK  Name = 7-hydroxy-3',6,7,14-tetramethyl-2,9-dioxa-14-azaspiro[bicyclo[9.5.1]heptadecane-4,2'-oxiran]-11-ene-3,8,17-trione
REMARK  0 active torsions:
REMARK  status: ('A' for Active; 'I' for Inactive)
REMARK                            x       y       z     vdW  Elec       q    Type
REMARK                         _______ _______ _______ _____ _____    ______ ____
ROOT
ATOM      1  C   UNL     1      -1.847   0.910   0.000  0.00  0.00    +0.200 C 
ATOM      2  C   UNL     1      -0.964   0.910   0.000  0.00  0.00    +0.043 C 
ATOM      3  C   UNL     1       0.192   1.501   0.000  0.00  0.00    +0.041 C 
ATOM      4  C   UNL     1       0.187   2.500   0.000  0.00  0.00    +0.003 C 
ATOM      5  C   UNL     1       1.069   1.501   0.000  0.00  0.00    +0.215 C 
ATOM      6  C   UNL     1       1.069   2.379   0.000  0.00  0.00    +0.045 C 
ATOM      7  O   UNL     1       1.069   0.623   0.000  0.00  0.00    -0.214 OA
ATOM      8  C   UNL     1       2.381   0.562   0.000  0.00  0.00    +0.345 C 
ATOM      9  O   UNL     1       3.138   1.007   0.000  0.00  0.00    -0.247 OA
ATOM     10  O   UNL     1       2.386  -0.315   0.000  0.00  0.00    -0.442 OA
ATOM     11  C   UNL     1       1.503  -0.315   0.000  0.00  0.00    +0.238 C 
ATOM     12  C   UNL     1       1.508  -1.198   0.000  0.00  0.00    +0.057 C 
ATOM     13  C   UNL     1       1.498  -2.071   0.000  0.00  0.00    -0.006 C 
ATOM     14  C   UNL     1       0.737  -2.500   0.000  0.00  0.00    +0.099 C 
ATOM     15  N   UNL     1      -0.020  -2.056   0.000  0.00  0.00    -0.268 NA
ATOM     16  C   UNL     1      -0.025  -2.934   0.000  0.00  0.00    +0.090 C 
ATOM     17  C   UNL     1      -0.782  -2.500   0.000  0.00  0.00    +0.077 C 
ATOM     18  C   UNL     1      -1.534  -2.056   0.000  0.00  0.00    +0.069 C 
ATOM     19  C   UNL     1      -1.534  -1.178   0.000  0.00  0.00    +0.231 C 
ATOM     20  O   UNL     1      -2.291  -0.729   0.000  0.00  0.00    -0.443 OA
ATOM     21  C   UNL     1      -0.010  -1.178   0.000  0.00  0.00    +0.212 C 
ATOM     22  O   UNL     1      -0.020  -0.260   0.000  0.00  0.00    -0.288 OA
ATOM     23  C   UNL     1      -1.902   2.454   0.000  0.00  0.00    +0.171 C 
ATOM     24  C   UNL     1      -2.744   2.934   0.000  0.00  0.00    +0.028 C 
ATOM     25  C   UNL     1      -2.285   0.149   0.000  0.00  0.00    +0.344 C 
ATOM     26  O   UNL     1      -3.138   0.376   0.000  0.00  0.00    -0.247 OA
ATOM     27  O   UNL     1      -1.206   1.652   0.000  0.00  0.00    -0.352 OA
ENDROOT
TORSDOF 0
ENDMDL
MODEL       19
REMARK  Name = 5-[(formyloxy)methyl]-2,5,8a-trimethyl-5''-oxo-octahydro-2H-dispiro[naphthalene-1,2':5',3''-bis(oxolane)]-6-yl formate
REMARK  5 active torsions:
REMARK  status: ('A' for Active; 'I' for Inactive)
REMARK    1  A    between atoms: C_4  and  C_24
REMARK    2  A    between atoms: C_13  and  O_25
REMARK    3  A    between atoms: C_15  and  O_25
REMARK    4  A    between atoms: C_16  and  O_28
REMARK    5  A    between atoms: C_24  and  O_28
REMARK                            x       y       z     vdW  Elec       q    Type
REMARK                         _______ _______ _______ _____ _____    ______ ____
ROOT
ATOM      1  C   UNL     1      -0.715   0.706   0.000  0.00  0.00    +0.023 C 
ATOM      2  C   UNL     1      -0.739   1.869   0.000  0.00  0.00    +0.002 C 
ATOM      3  C   UNL     1      -1.583   1.205   0.000  0.00  0.00    +0.006 C 
ATOM      4  C   UNL     1      -2.460   0.706   0.000  0.00  0.00    +0.044 C 
ATOM      5  C   UNL     1      -2.460  -0.264   0.000  0.00  0.00    +0.173 C 
ATOM      6  C   UNL     1      -1.583  -0.773   0.000  0.00  0.00    +0.077 C 
ATOM      7  C   UNL     1      -0.885  -1.229   0.000  0.00  0.00    +0.007 C 
ATOM      8  C   UNL     1      -0.715  -0.264   0.000  0.00  0.00    +0.009 C 
ATOM      9  C   UNL     1       0.133  -0.773   0.000  0.00  0.00    +0.000 C 
ATOM     10  C   UNL     1       0.972  -0.264   0.000  0.00  0.00    +0.002 C 
ATOM     11  C   UNL     1       0.972   0.706   0.000  0.00  0.00    +0.025 C 
ATOM     12  C   UNL     1       1.864   0.298   0.000  0.00  0.00    +0.002 C 
ATOM     13  C   UNL     1       0.133   1.205   0.000  0.00  0.00    +0.093 C 
ATOM     14  C   UNL     1       0.133   2.179   0.000  0.00  0.00    +0.030 C 
ATOM     15  C   UNL     1       0.972   2.669   0.000  0.00  0.00    +0.034 C 
ATOM     16  C   UNL     1       1.845   2.179   0.000  0.00  0.00    +0.143 C 
ATOM     17  C   UNL     1       2.679   2.669   0.000  0.00  0.00    +0.236 C 
ATOM     18  O   UNL     1       3.517   2.179   0.000  0.00  0.00    -0.446 OA
ATOM     19  C   UNL     1       3.260   1.229   0.000  0.00  0.00    +0.320 C 
ATOM     20  O   UNL     1       3.915   0.216   0.000  0.00  0.00    -0.250 OA
ATOM     21  C   UNL     1       1.845   1.205   0.000  0.00  0.00    +0.140 C 
ATOM     22  O   UNL     1       0.991   1.670   0.000  0.00  0.00    -0.359 OA
ENDROOT
BRANCH   6  23
ATOM     23  C   UNL     1      -2.339  -1.200   0.000  0.00  0.00    +0.212 C 
BRANCH  23  24
ATOM     24  O   UNL     1      -2.339  -2.170   0.000  0.00  0.00    -0.441 OA
BRANCH  24  25
ATOM     25  C   UNL     1      -1.510  -2.669   0.000  0.00  0.00    +0.418 C 
ATOM     26  O   UNL     1      -0.657  -2.170   0.000  0.00  0.00    -0.238 OA
ENDBRANCH  24  25
ENDBRANCH  23  24
ENDBRANCH   6  23
BRANCH   5  27
ATOM     27  O   UNL     1      -3.445  -0.264   0.000  0.00  0.00    -0.445 OA
BRANCH  27  28
ATOM     28  C   UNL     1      -3.915  -1.113   0.000  0.00  0.00    +0.418 C 
ATOM     29  O   UNL     1      -3.445  -1.956   0.000  0.00  0.00    -0.238 OA
ENDBRANCH  27  28
ENDBRANCH   5  27
TORSDOF 5
ENDMDL
MODEL       20
REMARK  Name = 4-{[(2E)-6,7-dihydroxy-3,7-dimethyloct-2-en-1-yl]oxy}-1,2-dihydroquinolin-2-one
REMARK  7 active torsions:
REMARK  status: ('A' for Active; 'I' for Inactive)
REMARK    1  A    between atoms: C_2  and  O_12
REMARK    2  A    between atoms: C_7  and  C_11
REMARK    3  A    between atoms: C_9  and  C_14
REMARK    4  A    between atoms: C_10  and  C_16
REMARK    5  A    between atoms: C_11  and  C_13
REMARK    6  A    between atoms: O_12  and  C_16
REMARK    7  A    between atoms: C_13  and  C_14
REMARK                            x       y       z     vdW  Elec       q    Type
REMARK                         _______ _______ _______ _____ _____    ______ ____
ROOT
ATOM      1  O   UNL     1      -2.143   0.787   0.000  0.00  0.00    -0.470 OA
ENDROOT
BRANCH   1  12
ATOM      2  C   UNL     1      -1.284  -0.701   0.000  0.00  0.00    +0.099 A 
ATOM      3  C   UNL     1      -1.284  -1.708   0.000  0.00  0.00    +0.282 A 
ATOM      4  O   UNL     1      -0.429  -2.201   0.000  0.00  0.00    -0.265 OA
ATOM      5  N   UNL     1      -2.143  -2.201   0.000  0.00  0.00    -0.208 NA
ATOM      6  C   UNL     1      -3.023  -1.708   0.000  0.00  0.00    +0.087 A 
ATOM      7  C   UNL     1      -3.023  -0.701   0.000  0.00  0.00    +0.052 A 
ATOM      8  C   UNL     1      -3.911  -0.199   0.000  0.00  0.00    +0.005 A 
ATOM      9  C   UNL     1      -4.798  -0.701   0.000  0.00  0.00    +0.000 A 
ATOM     10  C   UNL     1      -4.798  -1.708   0.000  0.00  0.00    +0.002 A 
ATOM     11  C   UNL     1      -3.911  -2.201   0.000  0.00  0.00    +0.019 A 
ATOM     12  C   UNL     1      -2.143  -0.199   0.000  0.00  0.00    +0.145 A 
ENDBRANCH   1  12
BRANCH   1  13
ATOM     13  C   UNL     1      -1.256   1.264   0.000  0.00  0.00    +0.231 C 
BRANCH  13  14
ATOM     14  C   UNL     1      -0.397   0.750   0.000  0.00  0.00    +0.012 C 
ATOM     15  C   UNL     1       0.471   1.202   0.000  0.00  0.00    -0.045 C 
ATOM     16  C   UNL     1       0.491   2.201   0.000  0.00  0.00    +0.026 C 
BRANCH  15  17
ATOM     17  C   UNL     1       1.330   0.701   0.000  0.00  0.00    +0.025 C 
BRANCH  17  18
ATOM     18  C   UNL     1       2.197   1.165   0.000  0.00  0.00    +0.040 C 
BRANCH  18  19
ATOM     19  C   UNL     1       3.056   0.639   0.000  0.00  0.00    +0.180 C 
ATOM     20  O   UNL     1       3.035  -0.355   0.000  0.00  0.00    -0.221 OA
BRANCH  19  21
ATOM     21  C   UNL     1       3.923   1.116   0.000  0.00  0.00    +0.155 C 
ATOM     22  C   UNL     1       3.450   1.983   0.000  0.00  0.00    +0.036 C 
ATOM     23  C   UNL     1       4.798   1.589   0.000  0.00  0.00    +0.036 C 
ATOM     24  O   UNL     1       4.396   0.245   0.000  0.00  0.00    -0.223 OA
ENDBRANCH  19  21
ENDBRANCH  18  19
ENDBRANCH  17  18
ENDBRANCH  15  17
ENDBRANCH  13  14
ENDBRANCH   1  13
TORSDOF 7
ENDMDL
MODEL       21
REMARK  Name = 4,5,9,9,13,20,20-HEPTAMETHYL-24-OXAHEXACYCLO[17.3.2.0^(1,18).0^(4,17).0^(5,14).0^(8,13)]TETRACOSANE-10,23-DIONE
REMARK  0 active torsions:
REMARK  status: ('A' for Active; 'I' for Inactive)
REMARK                            x       y       z     vdW  Elec       q    Type
REMARK                         _______ _______ _______ _____ _____    ______ ____
ROOT
ATOM      1  C   UNL     1       0.767  -0.583   0.000  0.00  0.00    +0.000 C 
ATOM      2  C   UNL     1       0.767  -1.431   0.000  0.00  0.00    +0.000 C 
ATOM      3  C   UNL     1       1.636  -1.063   0.000  0.00  0.00    +0.001 C 
ATOM      4  C   UNL     1       2.497  -0.561   0.000  0.00  0.00    +0.011 C 
ATOM      5  C   UNL     1       2.497   0.426   0.000  0.00  0.00    +0.093 C 
ATOM      6  C   UNL     1       1.636   0.928   0.000  0.00  0.00    +0.050 C 
ATOM      7  C   UNL     1       1.645   1.902   0.000  0.00  0.00    +0.169 C 
ATOM      8  C   UNL     1       2.483   2.396   0.000  0.00  0.00    +0.037 C 
ATOM      9  C   UNL     1       3.344   1.911   0.000  0.00  0.00    +0.004 C 
ATOM     10  C   UNL     1       1.688   2.920   0.000  0.00  0.00    +0.004 C 
ATOM     11  C   UNL     1       3.060   3.034   0.000  0.00  0.00    +0.004 C 
ATOM     12  O   UNL     1       2.811   1.378   0.000  0.00  0.00    -0.452 OA
ATOM     13  C   UNL     1       3.344   0.928   0.000  0.00  0.00    +0.011 C 
ATOM     14  C   UNL     1       3.650   0.151   0.000  0.00  0.00    +0.316 C 
ATOM     15  O   UNL     1       4.445  -0.448   0.000  0.00  0.00    -0.250 OA
ATOM     16  C   UNL     1       0.767   0.435   0.000  0.00  0.00    +0.004 C 
ATOM     17  C   UNL     1      -0.116   0.937   0.000  0.00  0.00    +0.000 C 
ATOM     18  C   UNL     1      -0.976   0.435   0.000  0.00  0.00    +0.000 C 
ATOM     19  C   UNL     1      -0.976  -0.561   0.000  0.00  0.00    +0.000 C 
ATOM     20  C   UNL     1      -1.845  -1.085   0.000  0.00  0.00    +0.001 C 
ATOM     21  C   UNL     1      -1.845  -2.081   0.000  0.00  0.00    +0.007 C 
ATOM     22  C   UNL     1      -2.715  -2.584   0.000  0.00  0.00    +0.052 C 
ATOM     23  C   UNL     1      -3.440  -3.034   0.000  0.00  0.00    +0.007 C 
ATOM     24  C   UNL     1      -1.990  -3.003   0.000  0.00  0.00    +0.007 C 
ATOM     25  C   UNL     1      -3.597  -2.081   0.000  0.00  0.00    +0.150 C 
ATOM     26  C   UNL     1      -3.597  -1.085   0.000  0.00  0.00    +0.064 C 
ATOM     27  O   UNL     1      -4.445  -2.584   0.000  0.00  0.00    -0.296 OA
ATOM     28  C   UNL     1      -0.976  -2.584   0.000  0.00  0.00    +0.000 C 
ATOM     29  C   UNL     1      -0.116  -2.081   0.000  0.00  0.00    +0.000 C 
ATOM     30  C   UNL     1      -1.845  -0.203   0.000  0.00  0.00    +0.000 C 
ATOM     31  C   UNL     1      -2.715  -0.561   0.000  0.00  0.00    +0.008 C 
ATOM     32  C   UNL     1      -0.116  -1.085   0.000  0.00  0.00    +0.000 C 
ATOM     33  C   UNL     1      -0.094  -0.238   0.000  0.00  0.00    +0.000 C 
ENDROOT
TORSDOF 0
ENDMDL
MODEL       22
REMARK  Name = METHYL 14-HYDROXY-5,9,13-TRIMETHYLTETRACYCLO[11.2.1.0^(1,10).0^(4,9)]HEXADECANE-5-CARBOXYLATE
REMARK  2 active torsions:
REMARK  status: ('A' for Active; 'I' for Inactive)
REMARK    1  A    between atoms: C_5  and  C_8
REMARK    2  A    between atoms: C_8  and  O_18
REMARK                            x       y       z     vdW  Elec       q    Type
REMARK                         _______ _______ _______ _____ _____    ______ ____
ROOT
ATOM      1  C   UNL     1       0.287   0.505   0.000  0.00  0.00    +0.003 C 
ATOM      2  C   UNL     1       0.287  -0.412   0.000  0.00  0.00    -0.000 C 
ATOM      3  C   UNL     1      -0.537  -0.908   0.000  0.00  0.00    -0.003 C 
ATOM      4  C   UNL     1      -1.358  -0.412   0.000  0.00  0.00    +0.023 C 
ATOM      5  C   UNL     1      -1.358   0.505   0.000  0.00  0.00    -0.003 C 
ATOM      6  C   UNL     1      -1.358   1.453   0.000  0.00  0.00    -0.000 C 
ATOM      7  C   UNL     1      -2.163   0.984   0.000  0.00  0.00    -0.000 C 
ATOM      8  C   UNL     1      -2.984   0.505   0.000  0.00  0.00    +0.001 C 
ATOM      9  C   UNL     1      -2.984  -0.412   0.000  0.00  0.00    +0.010 C 
ATOM     10  C   UNL     1      -2.163  -0.918   0.000  0.00  0.00    +0.086 C 
ATOM     11  C   UNL     1      -3.080  -1.516   0.000  0.00  0.00    +0.011 C 
ATOM     12  C   UNL     1       1.228  -0.110   0.000  0.00  0.00    +0.033 C 
ATOM     13  C   UNL     1       2.232   1.247   0.000  0.00  0.00    +0.152 C 
ATOM     14  C   UNL     1       1.085   1.965   0.000  0.00  0.00    +0.028 C 
ATOM     15  C   UNL     1       2.123   2.593   0.000  0.00  0.00    +0.003 C 
ATOM     16  C   UNL     1       0.254   2.394   0.000  0.00  0.00    +0.002 C 
ATOM     17  C   UNL     1      -0.537   1.942   0.000  0.00  0.00    +0.000 C 
ATOM     18  O   UNL     1       3.080   1.396   0.000  0.00  0.00    -0.223 OA
ATOM     19  C   UNL     1       1.092   0.991   0.000  0.00  0.00    +0.003 C 
ATOM     20  C   UNL     1      -0.537   0.984   0.000  0.00  0.00    -0.000 C 
ENDROOT
BRANCH  10  21
ATOM     21  C   UNL     1      -1.684  -1.722   0.000  0.00  0.00    +0.316 C 
ATOM     22  O   UNL     1      -2.179  -2.576   0.000  0.00  0.00    -0.250 OA
BRANCH  21  23
ATOM     23  O   UNL     1      -0.680  -1.722   0.000  0.00  0.00    -0.444 OA
ATOM     24  C   UNL     1      -0.178  -2.593   0.000  0.00  0.00    +0.256 C 
ENDBRANCH  21  23
ENDBRANCH  10  21
TORSDOF 2
ENDMDL
MODEL       23
REMARK  Name = N-(2-hydroxy-2-phenylethyl)benzamide
REMARK  4 active torsions:
REMARK  status: ('A' for Active; 'I' for Inactive)
REMARK    1  A    between atoms: C_1  and  C_4
REMARK    2  A    between atoms: N_2  and  C_5
REMARK    3  A    between atoms: C_5  and  C_6
REMARK    4  A    between atoms: C_6  and  C_7
REMARK                            x       y       z     vdW  Elec       q    Type
REMARK                         _______ _______ _______ _____ _____    ______ ____
ROOT
ATOM      1  C   UNL     1       1.304   0.245   0.000  0.00  0.00    +0.265 C 
ATOM      2  O   UNL     1       2.170  -0.245   0.000  0.00  0.00    -0.268 OA
ATOM      3  N   UNL     1       0.439  -0.245   0.000  0.00  0.00    -0.199 NA
ENDROOT
BRANCH   1   4
ATOM      4  C   UNL     1       1.304   1.247   0.000  0.00  0.00    +0.055 A 
ATOM      5  C   UNL     1       2.170   1.748   0.000  0.00  0.00    +0.005 A 
ATOM      6  C   UNL     1       2.170   2.751   0.000  0.00  0.00    +0.000 A 
ATOM      7  C   UNL     1       1.304   3.252   0.000  0.00  0.00    +0.000 A 
ATOM      8  C   UNL     1       0.439   2.751   0.000  0.00  0.00    +0.000 A 
ATOM      9  C   UNL     1       0.439   1.748   0.000  0.00  0.00    +0.005 A 
ENDBRANCH   1   4
BRANCH   3  10
ATOM     10  C   UNL     1      -0.439   0.245   0.000  0.00  0.00    +0.153 C 
BRANCH  10  11
ATOM     11  C   UNL     1      -1.304  -0.245   0.000  0.00  0.00    +0.196 C 
ATOM     12  O   UNL     1      -2.170   0.245   0.000  0.00  0.00    -0.216 OA
BRANCH  11  13
ATOM     13  C   UNL     1      -1.304  -1.247   0.000  0.00  0.00    +0.009 A 
ATOM     14  C   UNL     1      -0.439  -1.748   0.000  0.00  0.00    -0.002 A 
ATOM     15  C   UNL     1      -0.439  -2.751   0.000  0.00  0.00    -0.000 A 
ATOM     16  C   UNL     1      -1.304  -3.252   0.000  0.00  0.00    -0.000 A 
ATOM     17  C   UNL     1      -2.170  -2.751   0.000  0.00  0.00    -0.000 A 
ATOM     18  C   UNL     1      -2.170  -1.748   0.000  0.00  0.00    -0.002 A 
ENDBRANCH  11  13
ENDBRANCH  10  11
ENDBRANCH   3  10
TORSDOF 4
ENDMDL
MODEL       24
REMARK  Name = 4,8-dimethoxyfuro[2,3-b]quinolin-7-yl acetate
REMARK  4 active torsions:
REMARK  status: ('A' for Active; 'I' for Inactive)
REMARK    1  A    between atoms: C_6  and  O_18
REMARK    2  A    between atoms: C_7  and  O_17
REMARK    3  A    between atoms: C_8  and  O_11
REMARK    4  A    between atoms: O_11  and  C_13
REMARK                            x       y       z     vdW  Elec       q    Type
REMARK                         _______ _______ _______ _____ _____    ______ ____
ROOT
ATOM      1  C   UNL     1       0.552  -0.493   0.000  0.00  0.00    +0.124 A 
ATOM      2  C   UNL     1      -0.298  -1.008   0.000  0.00  0.00    +0.191 A 
ATOM      3  C   UNL     1      -1.180  -0.493   0.000  0.00  0.00    +0.184 A 
ATOM      4  C   UNL     1      -1.180   0.501   0.000  0.00  0.00    +0.041 A 
ATOM      5  C   UNL     1      -0.298   1.004   0.000  0.00  0.00    +0.008 A 
ATOM      6  C   UNL     1       0.552   0.501   0.000  0.00  0.00    +0.055 A 
ATOM      7  C   UNL     1       1.414   1.004   0.000  0.00  0.00    +0.145 A 
ATOM      8  C   UNL     1       2.276   0.501   0.000  0.00  0.00    +0.091 A 
ATOM      9  C   UNL     1       2.276  -0.493   0.000  0.00  0.00    +0.233 A 
ATOM     10  O   UNL     1       3.232  -0.809   0.000  0.00  0.00    -0.433 OA
ATOM     11  C   UNL     1       3.801   0.013   0.000  0.00  0.00    +0.182 A 
ATOM     12  C   UNL     1       3.232   0.817   0.000  0.00  0.00    +0.048 A 
ATOM     13  N   UNL     1       1.414  -1.008   0.000  0.00  0.00    -0.208 NA
ENDROOT
BRANCH   2  14
ATOM     14  O   UNL     1      -0.298  -1.999   0.000  0.00  0.00    -0.467 OA
ATOM     15  C   UNL     1       0.552  -2.494   0.000  0.00  0.00    +0.253 C 
ENDBRANCH   2  14
BRANCH   7  16
ATOM     16  O   UNL     1       1.414   2.007   0.000  0.00  0.00    -0.471 OA
ATOM     17  C   UNL     1       2.276   2.494   0.000  0.00  0.00    +0.252 C 
ENDBRANCH   7  16
BRANCH   3  18
ATOM     18  O   UNL     1      -2.058  -1.008   0.000  0.00  0.00    -0.421 OA
BRANCH  18  19
ATOM     19  C   UNL     1      -2.939  -0.493   0.000  0.00  0.00    +0.322 C 
ATOM     20  C   UNL     1      -3.801  -0.989   0.000  0.00  0.00    +0.122 C 
ATOM     21  O   UNL     1      -2.947   0.501   0.000  0.00  0.00    -0.250 OA
ENDBRANCH  18  19
ENDBRANCH   3  18
TORSDOF 4
ENDMDL
MODEL       25
REMARK  Name = {5-ethenyl-1-azabicyclo[2.2.2]octan-3-yl}(6-methoxyquinolin-4-yl)methanol
REMARK  4 active torsions:
REMARK  status: ('A' for Active; 'I' for Inactive)
REMARK    1  A    between atoms: C_1  and  C_2
REMARK    2  A    between atoms: C_2  and  C_4
REMARK    3  A    between atoms: C_7  and  C_14
REMARK    4  A    between atoms: C_19  and  O_23
REMARK                            x       y       z     vdW  Elec       q    Type
REMARK                         _______ _______ _______ _____ _____    ______ ____
ROOT
ATOM      1  C   UNL     1       0.042   0.599   0.000  0.00  0.00    +0.176 C 
ATOM      2  O   UNL     1      -0.900   1.194   0.000  0.00  0.00    -0.218 OA
ENDROOT
BRANCH   1   3
ATOM      3  C   UNL     1       0.042  -0.419   0.000  0.00  0.00    +0.011 A 
ATOM      4  C   UNL     1       0.932  -0.925   0.000  0.00  0.00    +0.019 A 
ATOM      5  C   UNL     1       0.932  -1.937   0.000  0.00  0.00    +0.099 A 
ATOM      6  N   UNL     1       0.042  -2.443   0.000  0.00  0.00    -0.244 NA
ATOM      7  C   UNL     1      -0.855  -1.937   0.000  0.00  0.00    +0.081 A 
ATOM      8  C   UNL     1      -1.745  -2.443   0.000  0.00  0.00    +0.022 A 
ATOM      9  C   UNL     1      -2.635  -1.937   0.000  0.00  0.00    +0.038 A 
ATOM     10  C   UNL     1      -2.635  -0.925   0.000  0.00  0.00    +0.139 A 
ATOM     11  C   UNL     1      -1.745  -0.419   0.000  0.00  0.00    +0.038 A 
ATOM     12  C   UNL     1      -0.855  -0.925   0.000  0.00  0.00    +0.019 A 
BRANCH  10  13
ATOM     13  O   UNL     1      -3.525  -0.419   0.000  0.00  0.00    -0.471 OA
ATOM     14  C   UNL     1      -3.545   0.599   0.000  0.00  0.00    +0.252 C 
ENDBRANCH  10  13
ENDBRANCH   1   3
BRANCH   1  15
ATOM     15  C   UNL     1       0.977   1.015   0.000  0.00  0.00    +0.051 C 
ATOM     16  C   UNL     1       1.098   2.040   0.000  0.00  0.00    +0.075 C 
ATOM     17  N   UNL     1       2.040   2.443   0.000  0.00  0.00    -0.272 NA
ATOM     18  C   UNL     1       1.406   1.732   0.000  0.00  0.00    +0.072 C 
ATOM     19  C   UNL     1       1.374   1.073   0.000  0.00  0.00    +0.018 C 
ATOM     20  C   UNL     1       2.885   1.828   0.000  0.00  0.00    +0.076 C 
ATOM     21  C   UNL     1       2.757   0.797   0.000  0.00  0.00    +0.038 C 
ATOM     22  C   UNL     1       1.790   0.400   0.000  0.00  0.00    +0.011 C 
BRANCH  21  23
ATOM     23  C   UNL     1       3.545   0.215   0.000  0.00  0.00    -0.025 C 
ATOM     24  C   UNL     1       3.423  -0.752   0.000  0.00  0.00    -0.005 C 
ENDBRANCH  21  23
ENDBRANCH   1  15
TORSDOF 4
ENDMDL
MODEL       26
REMARK  Name = 1,3,6,7-tetrahydroxy-2-{[3,4,5-trihydroxy-6-(hydroxymethyl)oxan-2-yl]oxy}-9H-xanthen-9-one
REMARK  3 active torsions:
REMARK  status: ('A' for Active; 'I' for Inactive)
REMARK    1  A    between atoms: C_4  and  O_13
REMARK    2  A    between atoms: C_6  and  O_13
REMARK    3  A    between atoms: C_15  and  C_30
REMARK                            x       y       z     vdW  Elec       q    Type
REMARK                         _______ _______ _______ _____ _____    ______ ____
ROOT
ATOM      1  C   UNL     1       0.721   0.916   0.000  0.00  0.00    +0.116 A 
ATOM      2  C   UNL     1       0.721   1.812   0.000  0.00  0.00    +0.155 A 
ATOM      3  C   UNL     1      -0.062   2.286   0.000  0.00  0.00    +0.083 A 
ATOM      4  C   UNL     1      -0.818   1.812   0.000  0.00  0.00    +0.236 A 
ATOM      5  C   UNL     1      -0.818   0.916   0.000  0.00  0.00    +0.219 A 
ATOM      6  O   UNL     1      -1.674   2.246   0.000  0.00  0.00    -0.283 OA
ATOM      7  O   UNL     1       1.482   2.286   0.000  0.00  0.00    -0.453 OA
ATOM      8  C   UNL     1       2.266   1.812   0.000  0.00  0.00    +0.152 A 
ATOM      9  C   UNL     1       2.266   0.916   0.000  0.00  0.00    +0.077 A 
ATOM     10  C   UNL     1       3.117   0.375   0.000  0.00  0.00    +0.052 A 
ATOM     11  C   UNL     1       3.985   0.848   0.000  0.00  0.00    +0.235 A 
ATOM     12  C   UNL     1       3.997   1.852   0.000  0.00  0.00    +0.237 A 
ATOM     13  O   UNL     1       4.876   2.353   0.000  0.00  0.00    -0.283 OA
ATOM     14  O   UNL     1       4.820   0.335   0.000  0.00  0.00    -0.283 OA
ATOM     15  C   UNL     1       3.129   2.353   0.000  0.00  0.00    +0.083 A 
ATOM     16  C   UNL     1      -0.062   0.471   0.000  0.00  0.00    +0.239 A 
ATOM     17  O   UNL     1      -0.062  -0.409   0.000  0.00  0.00    -0.283 OA
ATOM     18  C   UNL     1       1.482   0.471   0.000  0.00  0.00    +0.205 A 
ATOM     19  O   UNL     1       1.482  -0.409   0.000  0.00  0.00    -0.286 OA
ENDROOT
BRANCH   5  20
ATOM     20  O   UNL     1      -1.725   0.471   0.000  0.00  0.00    -0.444 OA
BRANCH  20  21
ATOM     21  C   UNL     1      -1.725  -0.612   0.000  0.00  0.00    +0.322 C 
ATOM     22  O   UNL     1      -2.486   0.420   0.000  0.00  0.00    -0.316 OA
ATOM     23  C   UNL     1      -3.906   0.420   0.000  0.00  0.00    +0.185 C 
ATOM     24  C   UNL     1      -4.690  -0.612   0.000  0.00  0.00    +0.215 C 
ATOM     25  C   UNL     1      -3.906  -1.542   0.000  0.00  0.00    +0.221 C 
ATOM     26  O   UNL     1      -3.929  -0.583   0.000  0.00  0.00    -0.217 OA
ATOM     27  O   UNL     1      -4.690  -1.609   0.000  0.00  0.00    -0.218 OA
ATOM     28  C   UNL     1      -2.486  -1.542   0.000  0.00  0.00    +0.254 C 
ATOM     29  O   UNL     1      -2.486  -2.353   0.000  0.00  0.00    -0.213 OA
BRANCH  23  30
ATOM     30  C   UNL     1      -3.906   1.051   0.000  0.00  0.00    +0.214 C 
ATOM     31  O   UNL     1      -4.876   1.502   0.000  0.00  0.00    -0.218 OA
ENDBRANCH  23  30
ENDBRANCH  20  21
ENDBRANCH   5  20
TORSDOF 3
ENDMDL
MODEL       27
REMARK  Name = 4-{9a-[(E)-(cyclohexylimino)methyl]-3a,5a,7-trihydroxy-11a-methyl-hexadecahydro-1H-cyclopenta[a]phenanthren-1-yl}-2,5-dihydrofuran-2-one
REMARK  3 active torsions:
REMARK  status: ('A' for Active; 'I' for Inactive)
REMARK    1  A    between atoms: C_1  and  C_9
REMARK    2  A    between atoms: C_7  and  C_8
REMARK    3  A    between atoms: N_17  and  C_29
REMARK                            x       y       z     vdW  Elec       q    Type
REMARK                         _______ _______ _______ _____ _____    ______ ____
ROOT
ATOM      1  C   UNL     1      -1.476  -1.266   0.000  0.00  0.00    +0.058 C 
ATOM      2  C   UNL     1      -2.335  -0.748   0.000  0.00  0.00    +0.010 C 
ATOM      3  C   UNL     1      -3.224  -1.266   0.000  0.00  0.00    +0.033 C 
ATOM      4  C   UNL     1      -3.224  -2.273   0.000  0.00  0.00    +0.154 C 
ATOM      5  C   UNL     1      -2.335  -2.779   0.000  0.00  0.00    +0.064 C 
ATOM      6  O   UNL     1      -4.113  -2.779   0.000  0.00  0.00    -0.223 OA
ATOM      7  C   UNL     1      -0.618  -0.748   0.000  0.00  0.00    +0.019 C 
ATOM      8  C   UNL     1      -0.618   0.247   0.000  0.00  0.00    -0.004 C 
ATOM      9  C   UNL     1       0.229   0.753   0.000  0.00  0.00    +0.002 C 
ATOM     10  C   UNL     1       1.137   0.290   0.000  0.00  0.00    +0.029 C 
ATOM     11  C   UNL     1       1.137  -0.748   0.000  0.00  0.00    +0.123 C 
ATOM     12  O   UNL     1       1.137  -1.754   0.000  0.00  0.00    -0.226 OA
ATOM     13  C   UNL     1       2.069  -1.087   0.000  0.00  0.00    +0.030 C 
ATOM     14  C   UNL     1       2.631  -0.260   0.000  0.00  0.00    +0.007 C 
ATOM     15  C   UNL     1       1.137   1.254   0.000  0.00  0.00    +0.003 C 
ATOM     16  C   UNL     1       2.038   0.543   0.000  0.00  0.00    +0.024 C 
ATOM     17  C   UNL     1       0.259  -1.266   0.000  0.00  0.00    +0.038 C 
ATOM     18  C   UNL     1       0.259  -2.273   0.000  0.00  0.00    +0.001 C 
ATOM     19  C   UNL     1      -0.618  -2.779   0.000  0.00  0.00    +0.031 C 
ATOM     20  C   UNL     1      -1.476  -2.273   0.000  0.00  0.00    +0.133 C 
ATOM     21  O   UNL     1      -1.476  -3.224   0.000  0.00  0.00    -0.225 OA
ENDROOT
BRANCH  16  22
ATOM     22  C   UNL     1       2.304   1.495   0.000  0.00  0.00    +0.005 C 
ATOM     23  C   UNL     1       1.594   2.396   0.000  0.00  0.00    +0.231 C 
ATOM     24  O   UNL     1       2.291   3.125   0.000  0.00  0.00    -0.441 OA
ATOM     25  C   UNL     1       3.255   2.736   0.000  0.00  0.00    +0.341 C 
ATOM     26  O   UNL     1       4.113   3.212   0.000  0.00  0.00    -0.245 OA
ATOM     27  C   UNL     1       3.255   1.847   0.000  0.00  0.00    +0.077 C 
ENDBRANCH  16  22
BRANCH   1  28
ATOM     28  C   UNL     1      -1.476  -0.272   0.000  0.00  0.00    +0.068 C 
ATOM     29  N   UNL     1      -2.335   0.216   0.000  0.00  0.00    -0.275 NA
BRANCH  29  30
ATOM     30  C   UNL     1      -2.335   1.210   0.000  0.00  0.00    +0.103 C 
ATOM     31  C   UNL     1      -1.476   1.729   0.000  0.00  0.00    +0.024 C 
ATOM     32  C   UNL     1      -1.476   2.693   0.000  0.00  0.00    +0.002 C 
ATOM     33  C   UNL     1      -2.347   3.224   0.000  0.00  0.00    +0.000 C 
ATOM     34  C   UNL     1      -3.193   2.724   0.000  0.00  0.00    +0.002 C 
ATOM     35  C   UNL     1      -3.193   1.698   0.000  0.00  0.00    +0.024 C 
ENDBRANCH  29  30
ENDBRANCH   1  28
TORSDOF 3
ENDMDL
MODEL       28
REMARK  Name = 10-amino-1,2,3-trimethoxy-7-(methylamino)-6,7-dihydrobenzo[a]heptalen-9(5H)-one
REMARK  4 active torsions:
REMARK  status: ('A' for Active; 'I' for Inactive)
REMARK    1  A    between atoms: C_4  and  O_18
REMARK    2  A    between atoms: C_6  and  O_20
REMARK    3  A    between atoms: C_10  and  O_22
REMARK    4  A    between atoms: C_14  and  N_21
REMARK                            x       y       z     vdW  Elec       q    Type
REMARK                         _______ _______ _______ _____ _____    ______ ____
ROOT
ATOM      1  C   UNL     1       0.691   0.371   0.000  0.00  0.00    +0.000 A 
ATOM      2  C   UNL     1       0.260  -0.516   0.000  0.00  0.00    +0.001 A 
ATOM      3  C   UNL     1       0.691  -1.421   0.000  0.00  0.00    +0.021 A 
ATOM      4  C   UNL     1       1.694  -1.656   0.000  0.00  0.00    +0.128 A 
ATOM      5  C   UNL     1       2.462  -1.020   0.000  0.00  0.00    +0.212 A 
ATOM      6  O   UNL     1       3.354  -1.438   0.000  0.00  0.00    -0.285 OA
ATOM      7  C   UNL     1       2.445  -0.026   0.000  0.00  0.00    +0.041 A 
ATOM      8  N   UNL     1       1.950  -2.607   0.000  0.00  0.00    -0.125 NA
ATOM      9  C   UNL     1      -0.098   0.977   0.000  0.00  0.00    +0.033 A 
ATOM     10  C   UNL     1      -0.098   1.980   0.000  0.00  0.00    -0.016 A 
ATOM     11  C   UNL     1       0.691   2.607   0.000  0.00  0.00    +0.028 C 
ATOM     12  C   UNL     1       1.677   2.381   0.000  0.00  0.00    +0.027 C 
ATOM     13  C   UNL     1       2.095   1.481   0.000  0.00  0.00    +0.095 C 
ATOM     14  C   UNL     1      -0.948   2.484   0.000  0.00  0.00    +0.036 A 
ATOM     15  C   UNL     1      -1.827   1.980   0.000  0.00  0.00    +0.175 A 
ATOM     16  C   UNL     1      -1.827   0.977   0.000  0.00  0.00    +0.206 A 
ATOM     17  C   UNL     1      -0.948   0.474   0.000  0.00  0.00    +0.175 A 
ATOM     18  C   UNL     1       1.677   0.610   0.000  0.00  0.00    -0.003 A 
ENDROOT
BRANCH  13  19
ATOM     19  N   UNL     1       3.090   1.481   0.000  0.00  0.00    -0.214 NA
ATOM     20  C   UNL     1       3.580   0.619   0.000  0.00  0.00    +0.108 C 
ENDBRANCH  13  19
BRANCH  16  21
ATOM     21  O   UNL     1      -2.719   0.474   0.000  0.00  0.00    -0.465 OA
ATOM     22  C   UNL     1      -3.580   0.977   0.000  0.00  0.00    +0.253 C 
ENDBRANCH  16  21
BRANCH  15  23
ATOM     23  O   UNL     1      -2.719   2.505   0.000  0.00  0.00    -0.468 OA
ATOM     24  C   UNL     1      -3.580   2.002   0.000  0.00  0.00    +0.253 C 
ENDBRANCH  15  23
BRANCH  17  25
ATOM     25  O   UNL     1      -0.948  -0.516   0.000  0.00  0.00    -0.468 OA
ATOM     26  C   UNL     1      -1.805  -1.020   0.000  0.00  0.00    +0.253 C 
ENDBRANCH  17  25
TORSDOF 4
ENDMDL
MODEL       29
REMARK  Name = 3-{4-hydroxy-5,7-dimethyl-3-methylidene-2-oxo-2H,3H,3aH,4H,5H,8H,8aH-cyclohepta[b]furan-6-yl}propyl acetate
REMARK  5 active torsions:
REMARK  status: ('A' for Active; 'I' for Inactive)
REMARK    1  A    between atoms: C_7  and  C_16
REMARK    2  A    between atoms: C_12  and  O_17
REMARK    3  A    between atoms: C_16  and  C_22
REMARK    4  A    between atoms: O_17  and  C_21
REMARK    5  A    between atoms: C_21  and  C_22
REMARK                            x       y       z     vdW  Elec       q    Type
REMARK                         _______ _______ _______ _____ _____    ______ ____
ROOT
ATOM      1  C   UNL     1       2.086  -0.088   0.000  0.00  0.00    +0.100 C 
ATOM      2  C   UNL     1       2.086   0.899   0.000  0.00  0.00    +0.180 C 
ATOM      3  C   UNL     1       1.313   1.533   0.000  0.00  0.00    +0.065 C 
ATOM      4  C   UNL     1       0.346   1.315   0.000  0.00  0.00    -0.048 C 
ATOM      5  C   UNL     1      -0.107   0.426   0.000  0.00  0.00    -0.050 C 
ATOM      6  C   UNL     1       0.346  -0.504   0.000  0.00  0.00    +0.049 C 
ATOM      7  C   UNL     1      -0.284  -1.294   0.000  0.00  0.00    +0.007 C 
ATOM      8  C   UNL     1      -0.304   2.084   0.000  0.00  0.00    +0.026 C 
ATOM      9  O   UNL     1       3.032   1.216   0.000  0.00  0.00    -0.449 OA
ATOM     10  C   UNL     1       3.604   0.405   0.000  0.00  0.00    +0.337 C 
ATOM     11  O   UNL     1       4.612   0.385   0.000  0.00  0.00    -0.245 OA
ATOM     12  C   UNL     1       1.313  -0.718   0.000  0.00  0.00    +0.163 C 
ATOM     13  O   UNL     1       1.530  -1.689   0.000  0.00  0.00    -0.222 OA
ATOM     14  C   UNL     1       3.032  -0.405   0.000  0.00  0.00    +0.059 C 
ATOM     15  C   UNL     1       3.370  -1.372   0.000  0.00  0.00    +0.002 C 
ENDROOT
BRANCH   5  16
ATOM     16  C   UNL     1      -1.094   0.447   0.000  0.00  0.00    +0.025 C 
BRANCH  16  17
ATOM     17  C   UNL     1      -1.609  -0.405   0.000  0.00  0.00    +0.052 C 
BRANCH  17  18
ATOM     18  C   UNL     1      -2.596  -0.385   0.000  0.00  0.00    +0.209 C 
BRANCH  18  19
ATOM     19  O   UNL     1      -3.110  -1.253   0.000  0.00  0.00    -0.448 OA
BRANCH  19  20
ATOM     20  C   UNL     1      -4.098  -1.232   0.000  0.00  0.00    +0.318 C 
ATOM     21  C   UNL     1      -4.612  -2.084   0.000  0.00  0.00    +0.121 C 
ATOM     22  O   UNL     1      -4.592  -0.344   0.000  0.00  0.00    -0.250 OA
ENDBRANCH  19  20
ENDBRANCH  18  19
ENDBRANCH  17  18
ENDBRANCH  16  17
ENDBRANCH   5  16
TORSDOF 5
ENDMDL
MODEL       30
REMARK  Name = 6-{[9a-cyano-3a,5a-dihydroxy-11a-methyl-1-(5-oxo-2,5-dihydrofuran-3-yl)-hexadecahydro-1H-cyclopenta[a]phenanthren-7-yl]oxy}-4-methoxy-2-methyloxan-3-yl acetate
REMARK  7 active torsions:
REMARK  status: ('A' for Active; 'I' for Inactive)
REMARK    1  A    between atoms: C_1  and  C_14
REMARK    2  A    between atoms: C_7  and  C_8
REMARK    3  A    between atoms: C_9  and  O_24
REMARK    4  A    between atoms: C_10  and  O_31
REMARK    5  A    between atoms: C_15  and  O_39
REMARK    6  A    between atoms: O_24  and  C_28
REMARK    7  A    between atoms: O_31  and  C_32
REMARK                            x       y       z     vdW  Elec       q    Type
REMARK                         _______ _______ _______ _____ _____    ______ ____
ROOT
ATOM      1  C   UNL     1       1.359   0.114   0.000  0.00  0.00    +0.101 C 
ATOM      2  C   UNL     1       0.544   0.557   0.000  0.00  0.00    +0.019 C 
ATOM      3  C   UNL     1      -0.173   0.114   0.000  0.00  0.00    +0.031 C 
ATOM      4  C   UNL     1      -0.173  -0.792   0.000  0.00  0.00    +0.120 C 
ATOM      5  C   UNL     1       0.544  -1.215   0.000  0.00  0.00    +0.061 C 
ATOM      6  C   UNL     1       2.140   0.557   0.000  0.00  0.00    +0.027 C 
ATOM      7  C   UNL     1       2.140   1.463   0.000  0.00  0.00    -0.003 C 
ATOM      8  C   UNL     1       2.910   1.900   0.000  0.00  0.00    +0.002 C 
ATOM      9  C   UNL     1       3.692   1.463   0.000  0.00  0.00    +0.029 C 
ATOM     10  C   UNL     1       3.692   0.557   0.000  0.00  0.00    +0.123 C 
ATOM     11  O   UNL     1       3.692  -0.401   0.000  0.00  0.00    -0.226 OA
ATOM     12  C   UNL     1       4.532   0.290   0.000  0.00  0.00    +0.030 C 
ATOM     13  C   UNL     1       5.047   1.007   0.000  0.00  0.00    +0.007 C 
ATOM     14  C   UNL     1       3.692   2.336   0.000  0.00  0.00    +0.003 C 
ATOM     15  C   UNL     1       4.532   1.698   0.000  0.00  0.00    +0.024 C 
ATOM     16  C   UNL     1       2.910   0.114   0.000  0.00  0.00    +0.039 C 
ATOM     17  C   UNL     1       2.910  -0.792   0.000  0.00  0.00    +0.001 C 
ATOM     18  C   UNL     1       2.140  -1.215   0.000  0.00  0.00    +0.031 C 
ATOM     19  C   UNL     1       1.359  -0.792   0.000  0.00  0.00    +0.141 C 
ATOM     20  O   UNL     1       1.359  -1.965   0.000  0.00  0.00    -0.225 OA
ENDROOT
BRANCH  15  21
ATOM     21  C   UNL     1       4.832   2.636   0.000  0.00  0.00    +0.005 C 
ATOM     22  C   UNL     1       5.771   2.962   0.000  0.00  0.00    +0.231 C 
ATOM     23  O   UNL     1       5.771   3.933   0.000  0.00  0.00    -0.441 OA
ATOM     24  C   UNL     1       4.832   4.233   0.000  0.00  0.00    +0.341 C 
ATOM     25  O   UNL     1       4.500   5.230   0.000  0.00  0.00    -0.245 OA
ATOM     26  C   UNL     1       4.252   3.386   0.000  0.00  0.00    +0.077 C 
ENDBRANCH  15  21
BRANCH   1  27
ATOM     27  C   UNL     1       1.372   1.307   0.000  0.00  0.00    +0.073 C 
ATOM     28  N   UNL     1       1.372   2.434   0.000  0.00  0.00    -0.196 NA
ENDBRANCH   1  27
BRANCH   4  29
ATOM     29  O   UNL     1      -0.974  -1.261   0.000  0.00  0.00    -0.333 OA
BRANCH  29  30
ATOM     30  C   UNL     1      -0.987  -2.760   0.000  0.00  0.00    +0.238 C 
ATOM     31  C   UNL     1      -1.782  -3.731   0.000  0.00  0.00    +0.095 C 
ATOM     32  C   UNL     1      -3.320  -3.731   0.000  0.00  0.00    +0.163 C 
ATOM     33  C   UNL     1      -4.083  -2.760   0.000  0.00  0.00    +0.223 C 
ATOM     34  C   UNL     1      -3.320  -1.711   0.000  0.00  0.00    +0.160 C 
ATOM     35  C   UNL     1      -3.320  -0.883   0.000  0.00  0.00    +0.036 C 
ATOM     36  O   UNL     1      -1.782  -1.711   0.000  0.00  0.00    -0.329 OA
BRANCH  32  37
ATOM     37  O   UNL     1      -3.320  -4.604   0.000  0.00  0.00    -0.350 OA
ATOM     38  C   UNL     1      -2.428  -5.184   0.000  0.00  0.00    +0.174 C 
ENDBRANCH  32  37
BRANCH  33  39
ATOM     39  O   UNL     1      -4.083  -3.796   0.000  0.00  0.00    -0.447 OA
BRANCH  39  40
ATOM     40  C   UNL     1      -4.943  -4.343   0.000  0.00  0.00    +0.318 C 
ATOM     41  C   UNL     1      -4.930  -5.230   0.000  0.00  0.00    +0.121 C 
ATOM     42  O   UNL     1      -5.771  -3.822   0.000  0.00  0.00    -0.250 OA
ENDBRANCH  39  40
ENDBRANCH  33  39
ENDBRANCH  29  30
ENDBRANCH   4  29
TORSDOF 7
ENDMDL
MODEL       31
REMARK  Name = (6-{[3,4-dihydroxy-2,5-bis(hydroxymethyl)oxolan-2-yl]oxy}-3,4,5-trihydroxyoxan-2-yl)methyl 3-(1,3-dimethyl-2-{[(2-oxo-2H-chromen-7-yl)oxy]methyl}-6-(propan-2-ylidene)cyclohexyl)propanoate
REMARK  13 active torsions:
REMARK  status: ('A' for Active; 'I' for Inactive)
REMARK    1  A    between atoms: C_1  and  O_8
REMARK    2  A    between atoms: C_1  and  C_35
REMARK    3  A    between atoms: C_2  and  O_8
REMARK    4  A    between atoms: C_4  and  C_19
REMARK    5  A    between atoms: C_13  and  C_28
REMARK    6  A    between atoms: C_14  and  C_46
REMARK    7  A    between atoms: C_15  and  C_26
REMARK    8  A    between atoms: C_19  and  C_41
REMARK    9  A    between atoms: C_26  and  O_34
REMARK   10  A    between atoms: C_27  and  O_32
REMARK   11  A    between atoms: C_27  and  C_41
REMARK   12  A    between atoms: C_28  and  O_32
REMARK   13  A    between atoms: O_34  and  C_38
REMARK                            x       y       z     vdW  Elec       q    Type
REMARK                         _______ _______ _______ _____ _____    ______ ____
ROOT
ATOM      1  C   UNL     1      -1.212   1.023   0.000  0.00  0.00    +0.110 C 
ENDROOT
BRANCH   1   2
ATOM      2  C   UNL     1      -0.406   0.651   0.000  0.00  0.00    +0.317 C 
ATOM      3  O   UNL     1       0.350   1.172   0.000  0.00  0.00    -0.250 OA
BRANCH   2   4
ATOM      4  O   UNL     1      -0.394  -0.155   0.000  0.00  0.00    -0.446 OA
BRANCH   4   5
ATOM      5  C   UNL     1       0.350  -0.589   0.000  0.00  0.00    +0.240 C 
BRANCH   5   8
ATOM      6  C   UNL     1       2.570  -2.225   0.000  0.00  0.00    +0.271 C 
ATOM      7  O   UNL     1       1.825  -1.240   0.000  0.00  0.00    -0.324 OA
ATOM      8  C   UNL     1       0.363  -1.228   0.000  0.00  0.00    +0.194 C 
ATOM      9  C   UNL     1      -0.437  -2.225   0.000  0.00  0.00    +0.216 C 
ATOM     10  C   UNL     1       0.319  -3.205   0.000  0.00  0.00    +0.220 C 
ATOM     11  O   UNL     1       0.338  -2.281   0.000  0.00  0.00    -0.217 OA
ATOM     12  O   UNL     1      -0.437  -3.267   0.000  0.00  0.00    -0.218 OA
ATOM     13  C   UNL     1       1.807  -3.236   0.000  0.00  0.00    +0.241 C 
ATOM     14  O   UNL     1       1.794  -4.160   0.000  0.00  0.00    -0.215 OA
BRANCH   6  15
ATOM     15  O   UNL     1       3.282  -3.131   0.000  0.00  0.00    -0.303 OA
BRANCH  15  16
ATOM     16  C   UNL     1       4.026  -2.207   0.000  0.00  0.00    +0.252 C 
ATOM     17  O   UNL     1       5.291  -1.525   0.000  0.00  0.00    -0.327 OA
ATOM     18  C   UNL     1       6.512  -2.207   0.000  0.00  0.00    +0.183 C 
ATOM     19  C   UNL     1       6.035  -3.162   0.000  0.00  0.00    +0.217 C 
ATOM     20  O   UNL     1       5.942  -2.418   0.000  0.00  0.00    -0.218 OA
ATOM     21  C   UNL     1       4.504  -3.162   0.000  0.00  0.00    +0.238 C 
ATOM     22  O   UNL     1       4.504  -4.036   0.000  0.00  0.00    -0.215 OA
BRANCH  16  23
ATOM     23  C   UNL     1       3.983  -1.228   0.000  0.00  0.00    +0.241 C 
ATOM     24  O   UNL     1       3.090  -0.738   0.000  0.00  0.00    -0.215 OA
ENDBRANCH  16  23
BRANCH  18  25
ATOM     25  C   UNL     1       6.512  -3.323   0.000  0.00  0.00    +0.214 C 
ATOM     26  O   UNL     1       7.479  -3.844   0.000  0.00  0.00    -0.218 OA
ENDBRANCH  18  25
ENDBRANCH  15  16
ENDBRANCH   6  15
ENDBRANCH   5   8
ENDBRANCH   4   5
ENDBRANCH   2   4
ENDBRANCH   1   2
BRANCH   1  27
ATOM     27  C   UNL     1      -1.255   1.897   0.000  0.00  0.00    +0.015 C 
BRANCH  27  28
ATOM     28  C   UNL     1      -0.530   2.405   0.000  0.00  0.00    +0.019 C 
ATOM     29  C   UNL     1       0.214   2.033   0.000  0.00  0.00    +0.004 C 
ATOM     30  C   UNL     1      -1.317   2.746   0.000  0.00  0.00    +0.047 C 
ATOM     31  C   UNL     1      -1.448   3.639   0.000  0.00  0.00    +0.004 C 
ATOM     32  C   UNL     1      -2.179   4.023   0.000  0.00  0.00    +0.000 C 
ATOM     33  C   UNL     1      -0.678   4.160   0.000  0.00  0.00    +0.004 C 
ATOM     34  C   UNL     1       0.140   3.800   0.000  0.00  0.00    +0.021 C 
ATOM     35  C   UNL     1       0.214   2.907   0.000  0.00  0.00    -0.053 C 
ATOM     36  C   UNL     1       1.286   2.374   0.000  0.00  0.00    -0.051 C 
ATOM     37  C   UNL     1       2.018   2.926   0.000  0.00  0.00    +0.026 C 
ATOM     38  C   UNL     1       1.404   1.481   0.000  0.00  0.00    +0.026 C 
BRANCH  30  39
ATOM     39  C   UNL     1      -2.018   2.213   0.000  0.00  0.00    +0.206 C 
BRANCH  39  40
ATOM     40  O   UNL     1      -2.817   2.585   0.000  0.00  0.00    -0.475 OA
BRANCH  40  41
ATOM     41  C   UNL     1      -3.561   2.089   0.000  0.00  0.00    +0.142 A 
ATOM     42  C   UNL     1      -3.456   1.184   0.000  0.00  0.00    +0.037 A 
ATOM     43  C   UNL     1      -4.200   0.632   0.000  0.00  0.00    +0.006 A 
ATOM     44  C   UNL     1      -4.975   1.047   0.000  0.00  0.00    +0.035 A 
ATOM     45  C   UNL     1      -5.111   1.928   0.000  0.00  0.00    +0.152 A 
ATOM     46  O   UNL     1      -5.911   2.300   0.000  0.00  0.00    -0.421 OA
ATOM     47  C   UNL     1      -6.655   1.779   0.000  0.00  0.00    +0.346 A 
ATOM     48  C   UNL     1      -6.580   0.874   0.000  0.00  0.00    +0.082 A 
ATOM     49  O   UNL     1      -7.479   2.194   0.000  0.00  0.00    -0.244 OA
ATOM     50  C   UNL     1      -5.781   0.514   0.000  0.00  0.00    +0.010 A 
ATOM     51  C   UNL     1      -4.336   2.480   0.000  0.00  0.00    +0.074 A 
ENDBRANCH  40  41
ENDBRANCH  39  40
ENDBRANCH  30  39
ENDBRANCH  27  28
ENDBRANCH   1  27
TORSDOF 13
ENDMDL
MODEL       32
REMARK  Name = 2-(hydroxymethyl)-6-(4-hydroxyphenoxy)oxane-3,4,5-triol
REMARK  3 active torsions:
REMARK  status: ('A' for Active; 'I' for Inactive)
REMARK    1  A    between atoms: C_1  and  O_7
REMARK    2  A    between atoms: C_6  and  C_13
REMARK    3  A    between atoms: O_7  and  C_10
REMARK                            x       y       z     vdW  Elec       q    Type
REMARK                         _______ _______ _______ _____ _____    ______ ____
ROOT
ATOM      1  C   UNL     1      -0.199  -0.308   0.000  0.00  0.00    +0.322 C 
ATOM      2  O   UNL     1      -1.008   0.754   0.000  0.00  0.00    -0.316 OA
ATOM      3  C   UNL     1      -2.501   0.754   0.000  0.00  0.00    +0.185 C 
ATOM      4  C   UNL     1      -3.288  -0.308   0.000  0.00  0.00    +0.215 C 
ATOM      5  C   UNL     1      -2.501  -1.320   0.000  0.00  0.00    +0.221 C 
ATOM      6  O   UNL     1      -2.501  -0.662   0.000  0.00  0.00    -0.217 OA
ATOM      7  O   UNL     1      -3.288  -0.987   0.000  0.00  0.00    -0.218 OA
ATOM      8  C   UNL     1      -1.008  -1.320   0.000  0.00  0.00    +0.254 C 
ATOM      9  O   UNL     1      -1.008  -1.922   0.000  0.00  0.00    -0.213 OA
ENDROOT
BRANCH   3  10
ATOM     10  C   UNL     1      -2.501   1.400   0.000  0.00  0.00    +0.214 C 
ATOM     11  O   UNL     1      -3.336   1.875   0.000  0.00  0.00    -0.218 OA
ENDBRANCH   3  10
BRANCH   1  12
ATOM     12  O   UNL     1      -0.199   0.423   0.000  0.00  0.00    -0.450 OA
BRANCH  12  13
ATOM     13  C   UNL     1       0.671   0.707   0.000  0.00  0.00    +0.142 A 
ATOM     14  C   UNL     1       0.834   1.627   0.000  0.00  0.00    +0.040 A 
ATOM     15  C   UNL     1       1.748   1.922   0.000  0.00  0.00    +0.045 A 
ATOM     16  C   UNL     1       2.450   1.294   0.000  0.00  0.00    +0.196 A 
ATOM     17  C   UNL     1       2.259   0.373   0.000  0.00  0.00    +0.045 A 
ATOM     18  O   UNL     1       3.336   1.577   0.000  0.00  0.00    -0.287 OA
ATOM     19  C   UNL     1       1.373   0.075   0.000  0.00  0.00    +0.040 A 
ENDBRANCH  12  13
ENDBRANCH   1  12
TORSDOF 3
ENDMDL
MODEL       33
REMARK  Name = (6-{[3,4-dihydroxy-2,5-bis(hydroxymethyl)oxolan-2-yl]oxy}-3,4,5-trihydroxyoxan-2-yl)methyl 3-(1,3-dimethyl-2-{[(2-oxo-2H-chromen-7-yl)oxy]methyl}-6-(prop-1-en-2-yl)cyclohex-3-en-1-yl)propanoate
REMARK  14 active torsions:
REMARK  status: ('A' for Active; 'I' for Inactive)
REMARK    1  A    between atoms: C_1  and  O_7
REMARK    2  A    between atoms: C_1  and  C_35
REMARK    3  A    between atoms: C_2  and  O_7
REMARK    4  A    between atoms: C_5  and  C_21
REMARK    5  A    between atoms: C_12  and  C_30
REMARK    6  A    between atoms: C_13  and  C_47
REMARK    7  A    between atoms: C_14  and  C_28
REMARK    8  A    between atoms: C_15  and  C_24
REMARK    9  A    between atoms: C_21  and  C_42
REMARK   10  A    between atoms: C_28  and  O_34
REMARK   11  A    between atoms: C_29  and  O_32
REMARK   12  A    between atoms: C_29  and  C_42
REMARK   13  A    between atoms: C_30  and  O_32
REMARK   14  A    between atoms: O_34  and  C_39
REMARK                            x       y       z     vdW  Elec       q    Type
REMARK                         _______ _______ _______ _____ _____    ______ ____
ROOT
ATOM      1  C   UNL     1      -1.212   1.023   0.000  0.00  0.00    +0.110 C 
ENDROOT
BRANCH   1   2
ATOM      2  C   UNL     1      -0.406   0.651   0.000  0.00  0.00    +0.317 C 
ATOM      3  O   UNL     1       0.350   1.171   0.000  0.00  0.00    -0.250 OA
BRANCH   2   4
ATOM      4  O   UNL     1      -0.394  -0.155   0.000  0.00  0.00    -0.446 OA
BRANCH   4   5
ATOM      5  C   UNL     1       0.350  -0.589   0.000  0.00  0.00    +0.240 C 
BRANCH   5   8
ATOM      6  C   UNL     1       2.570  -2.226   0.000  0.00  0.00    +0.271 C 
ATOM      7  O   UNL     1       1.825  -1.240   0.000  0.00  0.00    -0.324 OA
ATOM      8  C   UNL     1       0.363  -1.228   0.000  0.00  0.00    +0.194 C 
ATOM      9  C   UNL     1      -0.437  -2.226   0.000  0.00  0.00    +0.216 C 
ATOM     10  C   UNL     1       0.319  -3.205   0.000  0.00  0.00    +0.220 C 
ATOM     11  O   UNL     1       0.338  -2.281   0.000  0.00  0.00    -0.217 OA
ATOM     12  O   UNL     1      -0.437  -3.267   0.000  0.00  0.00    -0.218 OA
ATOM     13  C   UNL     1       1.807  -3.236   0.000  0.00  0.00    +0.241 C 
ATOM     14  O   UNL     1       1.795  -4.160   0.000  0.00  0.00    -0.215 OA
BRANCH   6  15
ATOM     15  O   UNL     1       3.283  -3.131   0.000  0.00  0.00    -0.303 OA
BRANCH  15  16
ATOM     16  C   UNL     1       4.027  -2.207   0.000  0.00  0.00    +0.252 C 
ATOM     17  O   UNL     1       5.291  -1.525   0.000  0.00  0.00    -0.327 OA
ATOM     18  C   UNL     1       6.512  -2.207   0.000  0.00  0.00    +0.183 C 
ATOM     19  C   UNL     1       6.035  -3.162   0.000  0.00  0.00    +0.217 C 
ATOM     20  O   UNL     1       5.942  -2.418   0.000  0.00  0.00    -0.218 OA
ATOM     21  C   UNL     1       4.504  -3.162   0.000  0.00  0.00    +0.238 C 
ATOM     22  O   UNL     1       4.504  -4.036   0.000  0.00  0.00    -0.215 OA
BRANCH  16  23
ATOM     23  C   UNL     1       4.027  -1.228   0.000  0.00  0.00    +0.241 C 
ATOM     24  O   UNL     1       3.165  -0.688   0.000  0.00  0.00    -0.215 OA
ENDBRANCH  16  23
BRANCH  18  25
ATOM     25  C   UNL     1       6.512  -3.323   0.000  0.00  0.00    +0.214 C 
ATOM     26  O   UNL     1       7.480  -3.844   0.000  0.00  0.00    -0.218 OA
ENDBRANCH  18  25
ENDBRANCH  15  16
ENDBRANCH   6  15
ENDBRANCH   5   8
ENDBRANCH   4   5
ENDBRANCH   2   4
ENDBRANCH   1   2
BRANCH   1  27
ATOM     27  C   UNL     1      -1.255   1.897   0.000  0.00  0.00    +0.012 C 
BRANCH  27  28
ATOM     28  C   UNL     1      -0.530   2.405   0.000  0.00  0.00    +0.011 C 
ATOM     29  C   UNL     1       0.214   2.034   0.000  0.00  0.00    +0.001 C 
ATOM     30  C   UNL     1       0.214   2.908   0.000  0.00  0.00    +0.023 C 
ATOM     31  C   UNL     1       0.140   3.800   0.000  0.00  0.00    +0.029 C 
ATOM     32  C   UNL     1      -0.679   4.160   0.000  0.00  0.00    -0.034 C 
ATOM     33  C   UNL     1      -1.448   3.639   0.000  0.00  0.00    -0.045 C 
ATOM     34  C   UNL     1      -2.179   4.023   0.000  0.00  0.00    +0.026 C 
ATOM     35  C   UNL     1      -1.317   2.746   0.000  0.00  0.00    +0.062 C 
BRANCH  30  36
ATOM     36  C   UNL     1       1.286   2.374   0.000  0.00  0.00    -0.044 C 
ATOM     37  C   UNL     1       2.018   2.926   0.000  0.00  0.00    +0.026 C 
ATOM     38  C   UNL     1       1.404   1.481   0.000  0.00  0.00    -0.009 C 
ENDBRANCH  30  36
BRANCH  35  39
ATOM     39  C   UNL     1      -2.018   2.213   0.000  0.00  0.00    +0.209 C 
BRANCH  39  40
ATOM     40  O   UNL     1      -2.817   2.585   0.000  0.00  0.00    -0.475 OA
BRANCH  40  41
ATOM     41  C   UNL     1      -3.561   2.089   0.000  0.00  0.00    +0.142 A 
ATOM     42  C   UNL     1      -3.456   1.184   0.000  0.00  0.00    +0.037 A 
ATOM     43  C   UNL     1      -4.200   0.632   0.000  0.00  0.00    +0.006 A 
ATOM     44  C   UNL     1      -4.975   1.048   0.000  0.00  0.00    +0.035 A 
ATOM     45  C   UNL     1      -5.111   1.928   0.000  0.00  0.00    +0.152 A 
ATOM     46  O   UNL     1      -5.911   2.300   0.000  0.00  0.00    -0.421 OA
ATOM     47  C   UNL     1      -6.655   1.779   0.000  0.00  0.00    +0.346 A 
ATOM     48  C   UNL     1      -6.581   0.874   0.000  0.00  0.00    +0.082 A 
ATOM     49  O   UNL     1      -7.480   2.194   0.000  0.00  0.00    -0.244 OA
ATOM     50  C   UNL     1      -5.781   0.514   0.000  0.00  0.00    +0.010 A 
ATOM     51  C   UNL     1      -4.336   2.479   0.000  0.00  0.00    +0.074 A 
ENDBRANCH  40  41
ENDBRANCH  39  40
ENDBRANCH  35  39
ENDBRANCH  27  28
ENDBRANCH   1  27
TORSDOF 14
ENDMDL
MODEL       34
REMARK  Name = 2-{[4,5-DIHYDROXY-2-({14-HYDROXY-15-[5-(2-HYDROXYPROPAN-2-YL)-2-METHYLOXOLAN-2-YL]-7,7,12,16-TETRAMETHYL-9-[(3,4,5-TRIHYDROXYOXAN-2-YL)OXY]PENTACYCLO[9.7.0.0^(1,3).0^(3,8).0^(12,16)]OCTADECAN-6-YL}OXY )OXAN-3-YL]OXY}-6-METHYLOXANE-3,4,5-TRIOL
REMARK  8 active torsions:
REMARK  status: ('A' for Active; 'I' for Inactive)
REMARK    1  A    between atoms: C_7  and  O_16
REMARK    2  A    between atoms: C_8  and  O_16
REMARK    3  A    between atoms: C_10  and  C_11
REMARK    4  A    between atoms: C_15  and  O_34
REMARK    5  A    between atoms: C_17  and  O_29
REMARK    6  A    between atoms: C_19  and  O_29
REMARK    7  A    between atoms: C_30  and  O_34
REMARK    8  A    between atoms: C_37  and  C_40
REMARK                            x       y       z     vdW  Elec       q    Type
REMARK                         _______ _______ _______ _____ _____    ______ ____
ROOT
ATOM      1  C   UNL     1       1.930   2.085   0.000  0.00  0.00    +0.000 C 
ATOM      2  C   UNL     1       1.930   2.811   0.000  0.00  0.00    +0.000 C 
ATOM      3  C   UNL     1       2.575   3.203   0.000  0.00  0.00    +0.000 C 
ATOM      4  C   UNL     1       3.227   2.811   0.000  0.00  0.00    +0.005 C 
ATOM      5  C   UNL     1       3.227   2.085   0.000  0.00  0.00    +0.003 C 
ATOM      6  C   UNL     1       3.227   1.359   0.000  0.00  0.00    +0.000 C 
ATOM      7  C   UNL     1       3.929   1.848   0.000  0.00  0.00    +0.033 C 
ATOM      8  C   UNL     1       4.337   2.460   0.000  0.00  0.00    +0.154 C 
ATOM      9  O   UNL     1       5.120   2.460   0.000  0.00  0.00    -0.223 OA
ATOM     10  C   UNL     1       3.227   3.692   0.000  0.00  0.00    +0.000 C 
ATOM     11  C   UNL     1       3.929   3.048   0.000  0.00  0.00    +0.055 C 
ATOM     12  C   UNL     1       1.269   2.574   0.000  0.00  0.00    +0.000 C 
ATOM     13  C   UNL     1       2.575   1.653   0.000  0.00  0.00    +0.002 C 
ATOM     14  C   UNL     1       2.575   0.951   0.000  0.00  0.00    +0.030 C 
ATOM     15  C   UNL     1       1.930   0.559   0.000  0.00  0.00    +0.118 C 
ATOM     16  C   UNL     1       1.269   0.951   0.000  0.00  0.00    +0.030 C 
ATOM     17  C   UNL     1       0.584   0.559   0.000  0.00  0.00    +0.027 C 
ATOM     18  C   UNL     1      -0.004   0.951   0.000  0.00  0.00    +0.118 C 
ATOM     19  C   UNL     1      -0.004   1.653   0.000  0.00  0.00    +0.030 C 
ATOM     20  C   UNL     1       0.584   2.085   0.000  0.00  0.00    +0.003 C 
ATOM     21  C   UNL     1       0.167  -0.086   0.000  0.00  0.00    +0.002 C 
ATOM     22  C   UNL     1       0.893  -0.086   0.000  0.00  0.00    +0.002 C 
ATOM     23  C   UNL     1       1.269   1.653   0.000  0.00  0.00    +0.002 C 
ENDROOT
BRANCH  11  24
ATOM     24  C   UNL     1       3.913   3.945   0.000  0.00  0.00    +0.095 C 
ATOM     25  C   UNL     1       4.655   3.456   0.000  0.00  0.00    +0.030 C 
ATOM     26  C   UNL     1       4.753   4.100   0.000  0.00  0.00    +0.029 C 
ATOM     27  C   UNL     1       4.753   4.924   0.000  0.00  0.00    +0.028 C 
ATOM     28  C   UNL     1       4.027   5.243   0.000  0.00  0.00    +0.163 C 
ATOM     29  O   UNL     1       3.480   4.631   0.000  0.00  0.00    -0.365 OA
BRANCH  28  30
ATOM     30  C   UNL     1       3.652   6.124   0.000  0.00  0.00    +0.146 C 
ATOM     31  C   UNL     1       2.754   5.765   0.000  0.00  0.00    +0.035 C 
ATOM     32  C   UNL     1       4.533   6.532   0.000  0.00  0.00    +0.035 C 
ATOM     33  O   UNL     1       3.301   7.038   0.000  0.00  0.00    -0.224 OA
ENDBRANCH  28  30
ENDBRANCH  11  24
BRANCH  18  34
ATOM     34  O   UNL     1      -2.672  -0.208   0.000  0.00  0.00    -0.331 OA
BRANCH  34  35
ATOM     35  C   UNL     1      -2.672  -1.245   0.000  0.00  0.00    +0.266 C 
ATOM     36  O   UNL     1      -3.276  -0.404   0.000  0.00  0.00    -0.326 OA
ATOM     37  C   UNL     1      -4.476  -0.404   0.000  0.00  0.00    +0.180 C 
ATOM     38  C   UNL     1      -5.120  -1.245   0.000  0.00  0.00    +0.214 C 
ATOM     39  C   UNL     1      -4.476  -2.003   0.000  0.00  0.00    +0.217 C 
ATOM     40  O   UNL     1      -4.476  -1.261   0.000  0.00  0.00    -0.218 OA
ATOM     41  O   UNL     1      -5.120  -2.166   0.000  0.00  0.00    -0.218 OA
ATOM     42  C   UNL     1      -3.276  -2.003   0.000  0.00  0.00    +0.207 C 
BRANCH  42  43
ATOM     43  O   UNL     1      -3.276  -3.668   0.000  0.00  0.00    -0.323 OA
BRANCH  43  44
ATOM     44  C   UNL     1      -3.301  -6.042   0.000  0.00  0.00    +0.270 C 
ATOM     45  O   UNL     1      -2.493  -6.997   0.000  0.00  0.00    -0.328 OA
ATOM     46  C   UNL     1      -1.106  -6.997   0.000  0.00  0.00    +0.151 C 
ATOM     47  C   UNL     1      -1.106  -6.002   0.000  0.00  0.00    +0.035 C 
ATOM     48  C   UNL     1      -0.363  -6.002   0.000  0.00  0.00    +0.212 C 
ATOM     49  C   UNL     1      -1.146  -5.039   0.000  0.00  0.00    +0.220 C 
ATOM     50  O   UNL     1      -1.146  -4.239   0.000  0.00  0.00    -0.217 OA
ATOM     51  O   UNL     1      -0.363  -7.038   0.000  0.00  0.00    -0.218 OA
ATOM     52  C   UNL     1      -2.550  -5.080   0.000  0.00  0.00    +0.241 C 
ATOM     53  O   UNL     1      -2.550  -4.280   0.000  0.00  0.00    -0.215 OA
ENDBRANCH  43  44
ENDBRANCH  42  43
ENDBRANCH  34  35
ENDBRANCH  18  34
BRANCH  15  54
ATOM     54  O   UNL     1       1.930  -1.106   0.000  0.00  0.00    -0.331 OA
BRANCH  54  55
ATOM     55  C   UNL     1       1.930  -2.395   0.000  0.00  0.00    +0.269 C 
ATOM     56  O   UNL     1       1.187  -1.457   0.000  0.00  0.00    -0.326 OA
ATOM     57  C   UNL     1      -0.102  -1.457   0.000  0.00  0.00    +0.180 C 
ATOM     58  C   UNL     1      -0.828  -2.395   0.000  0.00  0.00    +0.214 C 
ATOM     59  C   UNL     1      -0.102  -3.341   0.000  0.00  0.00    +0.220 C 
ATOM     60  O   UNL     1      -0.102  -2.420   0.000  0.00  0.00    -0.217 OA
ATOM     61  O   UNL     1      -0.812  -3.537   0.000  0.00  0.00    -0.218 OA
ATOM     62  C   UNL     1       1.187  -3.341   0.000  0.00  0.00    +0.241 C 
ATOM     63  O   UNL     1       1.187  -4.125   0.000  0.00  0.00    -0.215 OA
ENDBRANCH  54  55
ENDBRANCH  15  54
TORSDOF 8
ENDMDL
MODEL       35
REMARK  Name = Unable to name this structure
REMARK  8 active torsions:
REMARK  status: ('A' for Active; 'I' for Inactive)
REMARK    1  A    between atoms: N_1  and  C_26
REMARK    2  A    between atoms: C_3  and  C_24
REMARK    3  A    between atoms: C_20  and  C_54
REMARK    4  A    between atoms: C_21  and  C_22
REMARK    5  A    between atoms: C_24  and  O_51
REMARK    6  A    between atoms: C_26  and  C_32
REMARK    7  A    between atoms: C_32  and  O_39
REMARK    8  A    between atoms: O_39  and  C_40
REMARK                            x       y       z     vdW  Elec       q    Type
REMARK                         _______ _______ _______ _____ _____    ______ ____
ROOT
ATOM      1  C   UNL     1       0.734  -0.640   0.000  0.00  0.00    +0.172 C 
ATOM      2  C   UNL     1       0.734   0.309   0.000  0.00  0.00    +0.044 C 
ATOM      3  C   UNL     1       1.472   0.772   0.000  0.00  0.00    +0.016 C 
ATOM      4  C   UNL     1       2.309   0.309   0.000  0.00  0.00    +0.112 C 
ATOM      5  C   UNL     1       2.309  -0.640   0.000  0.00  0.00    +0.139 C 
ATOM      6  O   UNL     1       2.309  -1.840   0.000  0.00  0.00    -0.225 OA
ATOM      7  C   UNL     1       3.134  -1.071   0.000  0.00  0.00    +0.031 C 
ATOM      8  C   UNL     1       3.902  -0.640   0.000  0.00  0.00    +0.001 C 
ATOM      9  C   UNL     1       3.902   0.309   0.000  0.00  0.00    +0.038 C 
ATOM     10  C   UNL     1       4.740   0.772   0.000  0.00  0.00    +0.123 C 
ATOM     11  C   UNL     1       4.740   1.703   0.000  0.00  0.00    +0.029 C 
ATOM     12  C   UNL     1       4.727   2.884   0.000  0.00  0.00    +0.003 C 
ATOM     13  C   UNL     1       5.608   1.959   0.000  0.00  0.00    +0.024 C 
ATOM     14  C   UNL     1       6.133   1.234   0.000  0.00  0.00    +0.007 C 
ATOM     15  C   UNL     1       3.902   2.153   0.000  0.00  0.00    +0.002 C 
ATOM     16  C   UNL     1       3.134   1.703   0.000  0.00  0.00    -0.003 C 
ATOM     17  O   UNL     1       4.727  -0.353   0.000  0.00  0.00    -0.226 OA
ATOM     18  C   UNL     1       5.608   0.503   0.000  0.00  0.00    +0.030 C 
ATOM     19  C   UNL     1       3.134   0.772   0.000  0.00  0.00    +0.024 C 
ATOM     20  C   UNL     1       1.472  -1.071   0.000  0.00  0.00    +0.075 C 
ENDROOT
BRANCH  13  21
ATOM     21  C   UNL     1       5.896   2.859   0.000  0.00  0.00    +0.005 C 
ATOM     22  C   UNL     1       6.764   3.159   0.000  0.00  0.00    +0.231 C 
ATOM     23  O   UNL     1       6.733   4.083   0.000  0.00  0.00    -0.441 OA
ATOM     24  C   UNL     1       5.852   4.340   0.000  0.00  0.00    +0.341 C 
ATOM     25  O   UNL     1       5.533   5.240   0.000  0.00  0.00    -0.245 OA
ATOM     26  C   UNL     1       5.308   3.546   0.000  0.00  0.00    +0.077 C 
ENDBRANCH  13  21
BRANCH   4  27
ATOM     27  C   UNL     1       2.309   1.234   0.000  0.00  0.00    +0.318 C 
ATOM     28  O   UNL     1       1.472   1.703   0.000  0.00  0.00    -0.250 OA
BRANCH  27  29
ATOM     29  O   UNL     1       2.852   1.928   0.000  0.00  0.00    -0.444 OA
ATOM     30  C   UNL     1       2.503   2.915   0.000  0.00  0.00    +0.256 C 
ENDBRANCH  27  29
ENDBRANCH   4  27
BRANCH   1  31
ATOM     31  O   UNL     1      -0.103  -1.103   0.000  0.00  0.00    -0.448 OA
BRANCH  31  32
ATOM     32  C   UNL     1      -0.103  -2.034   0.000  0.00  0.00    +0.374 C 
ATOM     33  O   UNL     1       0.722  -2.496   0.000  0.00  0.00    -0.243 OA
BRANCH  32  34
ATOM     34  C   UNL     1      -0.915  -2.334   0.000  0.00  0.00    +0.221 C 
BRANCH  34  35
ATOM     35  N   UNL     1      -1.515  -3.396   0.000  0.00  0.00    +0.317 N 
ATOM     36  C   UNL     1      -0.747  -3.865   0.000  0.00  0.00    +0.215 C 
ATOM     37  O   UNL     1       0.091  -3.352   0.000  0.00  0.00    -0.167 OA
ATOM     38  C   UNL     1      -0.747  -4.777   0.000  0.00  0.00    +0.084 C 
ATOM     39  C   UNL     1      -1.515  -5.240   0.000  0.00  0.00    +0.022 C 
ATOM     40  C   UNL     1      -1.978  -2.615   0.000  0.00  0.00    +0.081 C 
ATOM     41  C   UNL     1      -3.121  -2.615   0.000  0.00  0.00    +0.163 C 
ATOM     42  C   UNL     1      -3.746  -1.790   0.000  0.00  0.00    +0.076 C 
ATOM     43  C   UNL     1      -2.521  -1.328   0.000  0.00  0.00    +0.064 C 
ATOM     44  C   UNL     1      -5.264  -1.790   0.000  0.00  0.00    -0.005 A 
ATOM     45  C   UNL     1      -5.264  -2.690   0.000  0.00  0.00    +0.044 A 
ATOM     46  C   UNL     1      -6.027  -3.115   0.000  0.00  0.00    +0.014 A 
ATOM     47  C   UNL     1      -6.764  -2.690   0.000  0.00  0.00    +0.001 A 
ATOM     48  C   UNL     1      -6.764  -1.790   0.000  0.00  0.00    -0.000 A 
ATOM     49  N   UNL     1      -4.484  -3.115   0.000  0.00  0.00    -0.302 N 
ATOM     50  C   UNL     1      -4.484  -4.071   0.000  0.00  0.00    +0.112 C 
ATOM     51  C   UNL     1      -6.027  -1.390   0.000  0.00  0.00    -0.003 A 
ATOM     52  C   UNL     1      -3.746  -2.690   0.000  0.00  0.00    +0.129 C 
ATOM     53  O   UNL     1      -2.778  -1.972   0.000  0.00  0.00    -0.223 OA
ATOM     54  C   UNL     1      -2.321  -4.777   0.000  0.00  0.00    +0.057 C 
ATOM     55  C   UNL     1      -2.321  -3.865   0.000  0.00  0.00    +0.080 C 
ATOM     56  C   UNL     1      -1.497  -1.821   0.000  0.00  0.00    +0.064 C 
BRANCH  38  57
ATOM     57  C   UNL     1       0.122  -5.215   0.000  0.00  0.00    +0.009 C 
ATOM     58  C   UNL     1       0.959  -4.702   0.000  0.00  0.00    +0.000 C 
ENDBRANCH  38  57
ENDBRANCH  34  35
ENDBRANCH  32  34
ENDBRANCH  31  32
ENDBRANCH   1  31
TORSDOF 8
ENDMDL
MODEL       36
REMARK  Name = N-{14-HYDROXY-3,4,5-TRIMETHOXY-13-OXOTRICYCLO[9.5.0.0^(2,7)]HEXADECA-1(16),2,4,6,11,14-HEXAEN-10-YL}ACETAMIDE
REMARK  4 active torsions:
REMARK  status: ('A' for Active; 'I' for Inactive)
REMARK    1  A    between atoms: C_4  and  O_21
REMARK    2  A    between atoms: C_6  and  O_22
REMARK    3  A    between atoms: C_10  and  N_14
REMARK    4  A    between atoms: C_11  and  O_24
REMARK                            x       y       z     vdW  Elec       q    Type
REMARK                         _______ _______ _______ _____ _____    ______ ____
ROOT
ATOM      1  C   UNL     1       0.164   0.088   0.000  0.00  0.00    +0.001 A 
ATOM      2  C   UNL     1      -0.269  -0.803   0.000  0.00  0.00    +0.003 A 
ATOM      3  C   UNL     1       0.164  -1.715   0.000  0.00  0.00    +0.045 A 
ATOM      4  C   UNL     1       1.136  -1.936   0.000  0.00  0.00    +0.234 A 
ATOM      5  C   UNL     1       1.921  -1.322   0.000  0.00  0.00    +0.234 A 
ATOM      6  O   UNL     1       2.808  -1.775   0.000  0.00  0.00    -0.283 OA
ATOM      7  C   UNL     1       1.921  -0.325   0.000  0.00  0.00    +0.043 A 
ATOM      8  O   UNL     1       1.377  -2.908   0.000  0.00  0.00    -0.283 OA
ATOM      9  C   UNL     1      -0.602   0.703   0.000  0.00  0.00    +0.033 A 
ATOM     10  C   UNL     1      -0.602   1.720   0.000  0.00  0.00    -0.016 A 
ATOM     11  C   UNL     1       0.164   2.334   0.000  0.00  0.00    +0.029 C 
ATOM     12  C   UNL     1       1.136   2.108   0.000  0.00  0.00    +0.031 C 
ATOM     13  C   UNL     1       1.589   1.191   0.000  0.00  0.00    +0.118 C 
ATOM     14  C   UNL     1      -1.468   2.204   0.000  0.00  0.00    +0.036 A 
ATOM     15  C   UNL     1      -2.329   1.690   0.000  0.00  0.00    +0.175 A 
ATOM     16  C   UNL     1      -2.329   0.703   0.000  0.00  0.00    +0.206 A 
ATOM     17  C   UNL     1      -1.468   0.209   0.000  0.00  0.00    +0.175 A 
ATOM     18  C   UNL     1       1.136   0.295   0.000  0.00  0.00    +0.001 A 
ENDROOT
BRANCH  13  19
ATOM     19  N   UNL     1       2.571   1.176   0.000  0.00  0.00    -0.203 NA
ATOM     20  C   UNL     1       3.100   2.032   0.000  0.00  0.00    +0.242 C 
ATOM     21  C   UNL     1       2.601   2.908   0.000  0.00  0.00    +0.096 C 
ATOM     22  O   UNL     1       4.082   2.002   0.000  0.00  0.00    -0.273 OA
ENDBRANCH  13  19
BRANCH  16  23
ATOM     23  O   UNL     1      -3.216   0.224   0.000  0.00  0.00    -0.465 OA
ATOM     24  C   UNL     1      -4.082   0.748   0.000  0.00  0.00    +0.253 C 
ENDBRANCH  16  23
BRANCH  15  25
ATOM     25  O   UNL     1      -3.216   2.188   0.000  0.00  0.00    -0.468 OA
ATOM     26  C   UNL     1      -4.082   1.655   0.000  0.00  0.00    +0.253 C 
ENDBRANCH  15  25
BRANCH  17  27
ATOM     27  O   UNL     1      -1.468  -0.803   0.000  0.00  0.00    -0.468 OA
ATOM     28  C   UNL     1      -0.602  -1.292   0.000  0.00  0.00    +0.253 C 
ENDBRANCH  17  27
TORSDOF 4
ENDMDL
MODEL       37
REMARK  Name = N-[3,4,5-TRIMETHOXY-14-(METHYLAMINO)-13-OXOTRICYCLO[9.5.0.0^(2,7)]HEXADECA-1(16),2,4,6,11,14-HEXAEN-10-YL]ACETAMIDE
REMARK  5 active torsions:
REMARK  status: ('A' for Active; 'I' for Inactive)
REMARK    1  A    between atoms: C_4  and  O_22
REMARK    2  A    between atoms: C_6  and  O_23
REMARK    3  A    between atoms: C_10  and  N_14
REMARK    4  A    between atoms: C_11  and  O_24
REMARK    5  A    between atoms: C_12  and  N_21
REMARK                            x       y       z     vdW  Elec       q    Type
REMARK                         _______ _______ _______ _____ _____    ______ ____
ROOT
ATOM      1  C   UNL     1       0.056  -0.092   0.000  0.00  0.00    +0.000 A 
ATOM      2  C   UNL     1      -0.572  -0.879   0.000  0.00  0.00    +0.001 A 
ATOM      3  C   UNL     1      -0.347  -1.865   0.000  0.00  0.00    +0.018 A 
ATOM      4  C   UNL     1       0.539  -2.268   0.000  0.00  0.00    +0.084 A 
ATOM      5  C   UNL     1       1.478  -1.851   0.000  0.00  0.00    +0.208 A 
ATOM      6  O   UNL     1       2.266  -2.470   0.000  0.00  0.00    -0.285 OA
ATOM      7  C   UNL     1       1.722  -0.879   0.000  0.00  0.00    +0.040 A 
ATOM      8  C   UNL     1      -0.530   0.739   0.000  0.00  0.00    +0.033 A 
ATOM      9  C   UNL     1      -0.291   1.710   0.000  0.00  0.00    -0.016 A 
ATOM     10  C   UNL     1       0.582   2.146   0.000  0.00  0.00    +0.028 C 
ATOM     11  C   UNL     1       1.496   1.714   0.000  0.00  0.00    +0.023 C 
ATOM     12  C   UNL     1       1.745   0.739   0.000  0.00  0.00    +0.113 C 
ATOM     13  C   UNL     1      -1.037   2.400   0.000  0.00  0.00    +0.036 A 
ATOM     14  C   UNL     1      -1.994   2.118   0.000  0.00  0.00    +0.175 A 
ATOM     15  C   UNL     1      -2.233   1.166   0.000  0.00  0.00    +0.206 A 
ATOM     16  C   UNL     1      -1.506   0.457   0.000  0.00  0.00    +0.175 A 
ATOM     17  C   UNL     1       1.088  -0.092   0.000  0.00  0.00    -0.007 A 
ENDROOT
BRANCH  12  18
ATOM     18  N   UNL     1       2.411  -0.073   0.000  0.00  0.00    -0.307 N 
ATOM     19  H   UNL     1       3.392   0.082   0.000  0.00  0.00    +0.149 HD
ATOM     20  C   UNL     1       2.758  -0.936   0.000  0.00  0.00    +0.223 C 
ATOM     21  C   UNL     1       3.884  -0.936   0.000  0.00  0.00    +0.095 C 
ATOM     22  O   UNL     1       2.266  -1.640   0.000  0.00  0.00    -0.275 OA
ENDBRANCH  12  18
BRANCH   4  23
ATOM     23  N   UNL     1       0.521  -3.272   0.000  0.00  0.00    -0.329 N 
ATOM     24  H   UNL     1      -0.338  -3.765   0.000  0.00  0.00    +0.147 HD
ATOM     25  C   UNL     1       1.370  -3.765   0.000  0.00  0.00    +0.109 C 
ENDBRANCH   4  23
BRANCH  15  26
ATOM     26  O   UNL     1      -3.190   0.908   0.000  0.00  0.00    -0.465 OA
ATOM     27  C   UNL     1      -3.884   1.616   0.000  0.00  0.00    +0.253 C 
ENDBRANCH  15  26
BRANCH  14  28
ATOM     28  O   UNL     1      -2.702   2.784   0.000  0.00  0.00    -0.468 OA
ATOM     29  C   UNL     1      -2.477   3.765   0.000  0.00  0.00    +0.253 C 
ENDBRANCH  14  28
BRANCH  16  30
ATOM     30  O   UNL     1      -1.754  -0.514   0.000  0.00  0.00    -0.468 OA
ATOM     31  C   UNL     1      -2.702  -0.767   0.000  0.00  0.00    +0.253 C 
ENDBRANCH  16  30
TORSDOF 5
ENDMDL
MODEL       38
REMARK  Name = 14-(DIETHYLAMINO)-3,4,5-TRIMETHOXY-10-(METHYLAMINO)TRICYCLO[9.5.0.0^(2,7)]HEXADECA-1(16),2,4,6,11,14-HEXAEN-13-ONE
REMARK  7 active torsions:
REMARK  status: ('A' for Active; 'I' for Inactive)
REMARK    1  A    between atoms: C_4  and  O_19
REMARK    2  A    between atoms: C_8  and  N_15
REMARK    3  A    between atoms: C_9  and  O_20
REMARK    4  A    between atoms: C_12  and  O_22
REMARK    5  A    between atoms: C_14  and  N_21
REMARK    6  A    between atoms: N_15  and  C_23
REMARK    7  A    between atoms: N_15  and  C_24
REMARK                            x       y       z     vdW  Elec       q    Type
REMARK                         _______ _______ _______ _____ _____    ______ ____
ROOT
ATOM      1  C   UNL     1       0.303   0.406   0.000  0.00  0.00    -0.000 A 
ATOM      2  C   UNL     1      -0.326  -0.382   0.000  0.00  0.00    +0.001 A 
ATOM      3  C   UNL     1      -0.101  -1.368   0.000  0.00  0.00    +0.018 A 
ATOM      4  C   UNL     1       0.786  -1.771   0.000  0.00  0.00    +0.087 A 
ATOM      5  C   UNL     1       1.724  -1.354   0.000  0.00  0.00    +0.209 A 
ATOM      6  O   UNL     1       2.513  -1.973   0.000  0.00  0.00    -0.285 OA
ATOM      7  C   UNL     1       1.968  -0.382   0.000  0.00  0.00    +0.040 A 
ATOM      8  C   UNL     1      -0.284   1.236   0.000  0.00  0.00    +0.033 A 
ATOM      9  C   UNL     1      -0.044   2.207   0.000  0.00  0.00    -0.016 A 
ATOM     10  C   UNL     1       0.828   2.644   0.000  0.00  0.00    +0.028 C 
ATOM     11  C   UNL     1       1.743   2.212   0.000  0.00  0.00    +0.019 C 
ATOM     12  C   UNL     1       1.992   1.236   0.000  0.00  0.00    +0.094 C 
ATOM     13  C   UNL     1      -0.791   2.897   0.000  0.00  0.00    +0.036 A 
ATOM     14  C   UNL     1      -1.748   2.616   0.000  0.00  0.00    +0.175 A 
ATOM     15  C   UNL     1      -1.987   1.663   0.000  0.00  0.00    +0.206 A 
ATOM     16  C   UNL     1      -1.260   0.955   0.000  0.00  0.00    +0.175 A 
ATOM     17  C   UNL     1       1.335   0.406   0.000  0.00  0.00    -0.010 A 
ENDROOT
BRANCH  12  18
ATOM     18  N   UNL     1       2.658   0.425   0.000  0.00  0.00    -0.298 NA
ATOM     19  H   UNL     1       3.639   0.579   0.000  0.00  0.00    +0.123 HD
ATOM     20  C   UNL     1       3.005  -0.439   0.000  0.00  0.00    +0.086 C 
ENDBRANCH  12  18
BRANCH  15  21
ATOM     21  O   UNL     1      -2.944   1.405   0.000  0.00  0.00    -0.465 OA
ATOM     22  C   UNL     1      -3.639   2.114   0.000  0.00  0.00    +0.253 C 
ENDBRANCH  15  21
BRANCH  14  23
ATOM     23  O   UNL     1      -2.456   3.282   0.000  0.00  0.00    -0.468 OA
ATOM     24  C   UNL     1      -2.231   4.263   0.000  0.00  0.00    +0.253 C 
ENDBRANCH  14  23
BRANCH  16  25
ATOM     25  O   UNL     1      -1.508  -0.016   0.000  0.00  0.00    -0.468 OA
ATOM     26  C   UNL     1      -2.456  -0.270   0.000  0.00  0.00    +0.253 C 
ENDBRANCH  16  25
BRANCH   4  27
ATOM     27  N   UNL     1       0.767  -2.775   0.000  0.00  0.00    -0.305 N 
BRANCH  27  28
ATOM     28  C   UNL     1      -0.092  -3.268   0.000  0.00  0.00    +0.091 C 
ATOM     29  C   UNL     1      -0.092  -4.263   0.000  0.00  0.00    +0.023 C 
ENDBRANCH  27  28
BRANCH  27  30
ATOM     30  C   UNL     1       1.616  -3.268   0.000  0.00  0.00    +0.091 C 
ATOM     31  C   UNL     1       2.475  -2.785   0.000  0.00  0.00    +0.023 C 
ENDBRANCH  27  30
ENDBRANCH   4  27
TORSDOF 7
ENDMDL
MODEL       39
REMARK  Name = 1-acetyl-1-hydroxy-2,9a,11a-trimethyl-1H,2H,3H,3aH,3bH,4H,6H,7H,8H,9H,9aH,9bH,10H,11H,11aH-cyclopenta[a]phenanthren-7-yl acetate
REMARK  3 active torsions:
REMARK  status: ('A' for Active; 'I' for Inactive)
REMARK    1  A    between atoms: C_3  and  C_15
REMARK    2  A    between atoms: C_17  and  O_18
REMARK    3  A    between atoms: O_18  and  C_19
REMARK                            x       y       z     vdW  Elec       q    Type
REMARK                         _______ _______ _______ _____ _____    ______ ____
ROOT
ATOM      1  C   UNL     1       1.738   1.330   0.000  0.00  0.00    +0.032 C 
ATOM      2  C   UNL     1       1.738   2.271   0.000  0.00  0.00    +0.003 C 
ATOM      3  C   UNL     1       0.870   1.806   0.000  0.00  0.00    +0.003 C 
ATOM      4  C   UNL     1      -0.008   1.330   0.000  0.00  0.00    +0.000 C 
ATOM      5  C   UNL     1      -0.008   0.311   0.000  0.00  0.00    +0.004 C 
ATOM      6  C   UNL     1       0.870  -0.191   0.000  0.00  0.00    +0.005 C 
ATOM      7  C   UNL     1       0.870  -1.194   0.000  0.00  0.00    +0.025 C 
ATOM      8  C   UNL     1      -0.008  -1.696   0.000  0.00  0.00    -0.035 C 
ATOM      9  C   UNL     1      -0.860  -1.194   0.000  0.00  0.00    -0.046 C 
ATOM     10  C   UNL     1      -1.728  -1.696   0.000  0.00  0.00    +0.065 C 
ATOM     11  C   UNL     1      -2.580  -1.194   0.000  0.00  0.00    +0.173 C 
ATOM     12  C   UNL     1      -2.580  -0.191   0.000  0.00  0.00    +0.044 C 
ATOM     13  C   UNL     1      -1.728   0.311   0.000  0.00  0.00    +0.007 C 
ATOM     14  C   UNL     1      -0.860  -0.191   0.000  0.00  0.00    +0.015 C 
ATOM     15  C   UNL     1      -0.860   0.677   0.000  0.00  0.00    +0.004 C 
ATOM     16  C   UNL     1       2.663   1.607   0.000  0.00  0.00    +0.177 C 
ATOM     17  O   UNL     1       3.918   2.120   0.000  0.00  0.00    -0.218 OA
ATOM     18  C   UNL     1       3.254   0.839   0.000  0.00  0.00    +0.035 C 
ATOM     19  C   UNL     1       2.689   0.013   0.000  0.00  0.00    +0.003 C 
ATOM     20  C   UNL     1       4.247   0.891   0.000  0.00  0.00    +0.003 C 
ATOM     21  C   UNL     1       1.738   0.301   0.000  0.00  0.00    +0.003 C 
ENDROOT
BRANCH  16  22
ATOM     22  C   UNL     1       2.951   2.548   0.000  0.00  0.00    +0.178 C 
ATOM     23  C   UNL     1       2.261   3.275   0.000  0.00  0.00    +0.075 C 
ATOM     24  O   UNL     1       3.918   2.747   0.000  0.00  0.00    -0.293 OA
ENDBRANCH  16  22
BRANCH  11  25
ATOM     25  O   UNL     1      -3.432  -1.696   0.000  0.00  0.00    -0.452 OA
BRANCH  25  26
ATOM     26  C   UNL     1      -3.432  -2.674   0.000  0.00  0.00    +0.317 C 
ATOM     27  C   UNL     1      -4.247  -3.123   0.000  0.00  0.00    +0.121 C 
ATOM     28  O   UNL     1      -2.616  -3.275   0.000  0.00  0.00    -0.250 OA
ENDBRANCH  25  26
ENDBRANCH  11  25
TORSDOF 3
ENDMDL
MODEL       40
REMARK  Name = 3,5a,9-trimethyl-2H,3H,3aH,4H,5H,5aH,8H,9bH-naphtho[1,2-b]furan-2,8-dione
REMARK  0 active torsions:
REMARK  status: ('A' for Active; 'I' for Inactive)
REMARK                            x       y       z     vdW  Elec       q    Type
REMARK                         _______ _______ _______ _____ _____    ______ ____
ROOT
ATOM      1  C   UNL     1      -0.457   0.259   0.000  0.00  0.00    -0.010 C 
ATOM      2  C   UNL     1      -0.457   1.259   0.000  0.00  0.00    +0.036 C 
ATOM      3  C   UNL     1      -0.457   2.254   0.000  0.00  0.00    +0.009 C 
ATOM      4  C   UNL     1       0.411   1.747   0.000  0.00  0.00    +0.008 C 
ATOM      5  C   UNL     1       1.284   1.259   0.000  0.00  0.00    +0.005 C 
ATOM      6  C   UNL     1       1.284   0.234   0.000  0.00  0.00    +0.047 C 
ATOM      7  C   UNL     1       2.021  -0.452   0.000  0.00  0.00    +0.102 C 
ATOM      8  C   UNL     1       1.589  -1.345   0.000  0.00  0.00    +0.316 C 
ATOM      9  O   UNL     1       2.107  -2.254   0.000  0.00  0.00    -0.250 OA
ATOM     10  O   UNL     1       0.609  -1.234   0.000  0.00  0.00    -0.456 OA
ATOM     11  C   UNL     1       3.021  -0.299   0.000  0.00  0.00    +0.012 C 
ATOM     12  C   UNL     1      -1.295   1.747   0.000  0.00  0.00    -0.020 C 
ATOM     13  C   UNL     1      -2.168   1.259   0.000  0.00  0.00    +0.037 C 
ATOM     14  C   UNL     1      -2.168   0.234   0.000  0.00  0.00    +0.191 C 
ATOM     15  O   UNL     1      -3.021  -0.172   0.000  0.00  0.00    -0.287 OA
ATOM     16  C   UNL     1      -1.295  -0.259   0.000  0.00  0.00    +0.012 C 
ATOM     17  C   UNL     1      -1.295  -1.259   0.000  0.00  0.00    +0.034 C 
ATOM     18  C   UNL     1       0.411  -0.259   0.000  0.00  0.00    +0.212 C 
ENDROOT
TORSDOF 0
ENDMDL
MODEL       41
REMARK  Name = 4-hydroxy-3,6,9-trimethyl-2H,3H,3aH,4H,5H,7H,9aH,9bH-azuleno[4,5-b]furan-2,7-dione
REMARK  0 active torsions:
REMARK  status: ('A' for Active; 'I' for Inactive)
REMARK                            x       y       z     vdW  Elec       q    Type
REMARK                         _______ _______ _______ _____ _____    ______ ____
ROOT
ATOM      1  C   UNL     1      -0.874   0.203   0.000  0.00  0.00    +0.098 C 
ATOM      2  C   UNL     1      -1.847  -0.120   0.000  0.00  0.00    -0.038 C 
ATOM      3  C   UNL     1      -2.191  -1.073   0.000  0.00  0.00    +0.027 C 
ATOM      4  C   UNL     1      -2.427   0.700   0.000  0.00  0.00    +0.033 C 
ATOM      5  C   UNL     1      -1.847   1.512   0.000  0.00  0.00    +0.191 C 
ATOM      6  O   UNL     1      -2.191   2.465   0.000  0.00  0.00    -0.287 OA
ATOM      7  C   UNL     1      -0.874   1.214   0.000  0.00  0.00    +0.011 C 
ATOM      8  C   UNL     1      -0.103   1.831   0.000  0.00  0.00    -0.042 C 
ATOM      9  C   UNL     1      -0.319   2.825   0.000  0.00  0.00    +0.026 C 
ATOM     10  C   UNL     1       0.891   1.611   0.000  0.00  0.00    +0.054 C 
ATOM     11  C   UNL     1       1.334   0.700   0.000  0.00  0.00    +0.156 C 
ATOM     12  O   UNL     1       2.345   0.700   0.000  0.00  0.00    -0.223 OA
ATOM     13  C   UNL     1       0.891  -0.220   0.000  0.00  0.00    +0.095 C 
ATOM     14  C   UNL     1       1.413  -1.073   0.000  0.00  0.00    +0.101 C 
ATOM     15  C   UNL     1       0.775  -1.831   0.000  0.00  0.00    +0.316 C 
ATOM     16  O   UNL     1       1.036  -2.825   0.000  0.00  0.00    -0.250 OA
ATOM     17  O   UNL     1      -0.178  -1.450   0.000  0.00  0.00    -0.452 OA
ATOM     18  C   UNL     1       2.427  -1.172   0.000  0.00  0.00    +0.012 C 
ATOM     19  C   UNL     1      -0.103  -0.439   0.000  0.00  0.00    +0.171 C 
ENDROOT
TORSDOF 0
ENDMDL
MODEL       42
REMARK  Name = 3-(piperidin-2-yl)pyridine
REMARK  1 active torsions:
REMARK  status: ('A' for Active; 'I' for Inactive)
REMARK    1  A    between atoms: C_2  and  C_3
REMARK                            x       y       z     vdW  Elec       q    Type
REMARK                         _______ _______ _______ _____ _____    ______ ____
ROOT
ATOM      1  N   UNL     1       1.323  -0.218   0.000  0.00  0.00    -0.215 NA
ATOM      2  C   UNL     1       2.169   0.272   0.000  0.00  0.00    +0.089 C 
ATOM      3  C   UNL     1       2.159   1.280   0.000  0.00  0.00    +0.019 C 
ATOM      4  C   UNL     1       1.283   1.759   0.000  0.00  0.00    +0.003 C 
ATOM      5  C   UNL     1       0.426   1.244   0.000  0.00  0.00    +0.022 C 
ATOM      6  C   UNL     1       0.426   0.250   0.000  0.00  0.00    +0.096 C 
ENDROOT
BRANCH   6   7
ATOM      7  C   UNL     1      -0.439  -0.250   0.000  0.00  0.00    +0.013 A 
ATOM      8  C   UNL     1      -1.304   0.250   0.000  0.00  0.00    +0.000 A 
ATOM      9  C   UNL     1      -2.169  -0.250   0.000  0.00  0.00    +0.020 A 
ATOM     10  C   UNL     1      -2.169  -1.255   0.000  0.00  0.00    +0.099 A 
ATOM     11  N   UNL     1      -1.304  -1.759   0.000  0.00  0.00    -0.243 NA
ATOM     12  C   UNL     1      -0.439  -1.255   0.000  0.00  0.00    +0.096 A 
ENDBRANCH   6   7
TORSDOF 1
ENDMDL
MODEL       43
REMARK  Name = 4-(7-{[5-({5-[(4,5-dihydroxy-6-methyloxan-2-yl)oxy]-4-hydroxy-6-methyloxan-2-yl}oxy)-4-hydroxy-6-methyloxan-2-yl]oxy}-3a-hydroxy-9a,11a-dimethyl-hexadecahydro-1H-cyclopenta[a]phenanthren-1-yl)-2,5-dih ydrofuran-2-one
REMARK  7 active torsions:
REMARK  status: ('A' for Active; 'I' for Inactive)
REMARK    1  A    between atoms: C_6  and  C_7
REMARK    2  A    between atoms: C_8  and  O_31
REMARK    3  A    between atoms: C_9  and  O_32
REMARK    4  A    between atoms: C_10  and  O_31
REMARK    5  A    between atoms: C_11  and  O_32
REMARK    6  A    between atoms: C_12  and  O_39
REMARK    7  A    between atoms: O_39  and  C_43
REMARK                            x       y       z     vdW  Elec       q    Type
REMARK                         _______ _______ _______ _____ _____    ______ ____
ROOT
ATOM      1  O   UNL     1       1.050   1.139   0.000  0.00  0.00    -0.333 OA
ENDROOT
BRANCH   1  15
ATOM      2  C   UNL     1       4.785   2.596   0.000  0.00  0.00    +0.123 C 
ATOM      3  O   UNL     1       4.758   1.372   0.000  0.00  0.00    -0.226 OA
ATOM      4  C   UNL     1       5.447   2.355   0.000  0.00  0.00    +0.030 C 
ATOM      5  C   UNL     1       5.875   2.962   0.000  0.00  0.00    +0.007 C 
ATOM      6  C   UNL     1       5.447   3.517   0.000  0.00  0.00    +0.024 C 
ATOM      7  C   UNL     1       4.160   2.247   0.000  0.00  0.00    +0.037 C 
ATOM      8  C   UNL     1       4.160   1.497   0.000  0.00  0.00    -0.002 C 
ATOM      9  C   UNL     1       3.543   1.175   0.000  0.00  0.00    -0.004 C 
ATOM     10  C   UNL     1       2.944   1.497   0.000  0.00  0.00    +0.015 C 
ATOM     11  C   UNL     1       2.944   2.247   0.000  0.00  0.00    -0.007 C 
ATOM     12  C   UNL     1       2.900   3.427   0.000  0.00  0.00    -0.001 C 
ATOM     13  C   UNL     1       2.256   2.596   0.000  0.00  0.00    +0.002 C 
ATOM     14  C   UNL     1       1.675   2.247   0.000  0.00  0.00    +0.030 C 
ATOM     15  C   UNL     1       1.675   1.497   0.000  0.00  0.00    +0.117 C 
ATOM     16  C   UNL     1       2.256   1.175   0.000  0.00  0.00    +0.026 C 
ATOM     17  C   UNL     1       3.543   2.596   0.000  0.00  0.00    +0.011 C 
ATOM     18  C   UNL     1       3.543   3.347   0.000  0.00  0.00    -0.004 C 
ATOM     19  C   UNL     1       4.160   3.686   0.000  0.00  0.00    +0.002 C 
ATOM     20  C   UNL     1       4.785   3.347   0.000  0.00  0.00    +0.029 C 
ATOM     21  C   UNL     1       4.723   4.606   0.000  0.00  0.00    +0.003 C 
BRANCH   6  22
ATOM     22  C   UNL     1       5.750   4.544   0.000  0.00  0.00    +0.005 C 
ATOM     23  C   UNL     1       6.733   4.910   0.000  0.00  0.00    +0.231 C 
ATOM     24  O   UNL     1       6.733   5.965   0.000  0.00  0.00    -0.441 OA
ATOM     25  C   UNL     1       5.732   6.260   0.000  0.00  0.00    +0.341 C 
ATOM     26  O   UNL     1       5.366   7.314   0.000  0.00  0.00    -0.245 OA
ATOM     27  C   UNL     1       5.089   5.339   0.000  0.00  0.00    +0.077 C 
ENDBRANCH   6  22
ENDBRANCH   1  15
BRANCH   1  28
ATOM     28  C   UNL     1       1.050   0.130   0.000  0.00  0.00    +0.238 C 
ATOM     29  C   UNL     1       0.433  -0.648   0.000  0.00  0.00    +0.097 C 
ATOM     30  C   UNL     1      -0.773  -0.648   0.000  0.00  0.00    +0.186 C 
ATOM     31  O   UNL     1      -0.773  -1.354   0.000  0.00  0.00    -0.220 OA
ATOM     32  C   UNL     1      -1.372   0.130   0.000  0.00  0.00    +0.175 C 
ATOM     33  C   UNL     1      -0.773   0.943   0.000  0.00  0.00    +0.147 C 
ATOM     34  C   UNL     1      -0.791   2.230   0.000  0.00  0.00    +0.035 C 
ATOM     35  O   UNL     1       0.433   0.943   0.000  0.00  0.00    -0.330 OA
BRANCH  32  36
ATOM     36  O   UNL     1      -1.372  -0.943   0.000  0.00  0.00    -0.328 OA
BRANCH  36  37
ATOM     37  C   UNL     1      -1.372  -1.908   0.000  0.00  0.00    +0.238 C 
ATOM     38  C   UNL     1      -2.033  -2.721   0.000  0.00  0.00    +0.097 C 
ATOM     39  C   UNL     1      -3.346  -2.721   0.000  0.00  0.00    +0.186 C 
ATOM     40  O   UNL     1      -3.320  -3.623   0.000  0.00  0.00    -0.220 OA
ATOM     41  C   UNL     1      -3.945  -1.908   0.000  0.00  0.00    +0.175 C 
ATOM     42  C   UNL     1      -3.346  -1.032   0.000  0.00  0.00    +0.147 C 
ATOM     43  C   UNL     1      -3.320   0.174   0.000  0.00  0.00    +0.035 C 
ATOM     44  O   UNL     1      -2.033  -1.032   0.000  0.00  0.00    -0.330 OA
BRANCH  41  45
ATOM     45  O   UNL     1      -3.945  -3.409   0.000  0.00  0.00    -0.328 OA
BRANCH  45  46
ATOM     46  C   UNL     1      -3.945  -5.080   0.000  0.00  0.00    +0.238 C 
ATOM     47  C   UNL     1      -4.606  -6.009   0.000  0.00  0.00    +0.097 C 
ATOM     48  C   UNL     1      -6.027  -6.009   0.000  0.00  0.00    +0.190 C 
ATOM     49  O   UNL     1      -6.027  -7.314   0.000  0.00  0.00    -0.220 OA
ATOM     50  C   UNL     1      -6.689  -5.080   0.000  0.00  0.00    +0.209 C 
ATOM     51  C   UNL     1      -6.027  -4.142   0.000  0.00  0.00    +0.151 C 
ATOM     52  C   UNL     1      -6.027  -3.070   0.000  0.00  0.00    +0.035 C 
ATOM     53  O   UNL     1      -6.733  -6.653   0.000  0.00  0.00    -0.218 OA
ATOM     54  O   UNL     1      -4.606  -4.142   0.000  0.00  0.00    -0.330 OA
ENDBRANCH  45  46
ENDBRANCH  41  45
ENDBRANCH  36  37
ENDBRANCH  32  36
ENDBRANCH   1  28
TORSDOF 7
ENDMDL
MODEL       44
REMARK  Name = 3-(2-sulfanylidene-2,3-dihydro-1,3-benzoxazol-3-yl)propanoic acid
REMARK  3 active torsions:
REMARK  status: ('A' for Active; 'I' for Inactive)
REMARK    1  A    between atoms: N_2  and  C_6
REMARK    2  A    between atoms: C_6  and  C_8
REMARK    3  A    between atoms: C_8  and  C_9
REMARK                            x       y       z     vdW  Elec       q    Type
REMARK                         _______ _______ _______ _____ _____    ______ ____
ROOT
ATOM      1  C   UNL     1       0.596  -1.321   0.000  0.00  0.00    +0.250 A 
ATOM      2  S   UNL     1       1.591  -1.321   0.000  0.00  0.00    +0.009 S 
ATOM      3  O   UNL     1       0.038  -2.124   0.000  0.00  0.00    -0.431 OA
ATOM      4  C   UNL     1      -0.939  -1.820   0.000  0.00  0.00    +0.163 A 
ATOM      5  C   UNL     1      -0.939  -0.817   0.000  0.00  0.00    +0.098 A 
ATOM      6  C   UNL     1      -1.809  -0.308   0.000  0.00  0.00    +0.020 A 
ATOM      7  C   UNL     1      -2.670  -0.817   0.000  0.00  0.00    +0.002 A 
ATOM      8  C   UNL     1      -2.670  -1.820   0.000  0.00  0.00    +0.003 A 
ATOM      9  C   UNL     1      -1.809  -2.325   0.000  0.00  0.00    +0.039 A 
ATOM     10  N   UNL     1       0.038  -0.518   0.000  0.00  0.00    -0.290 N 
ENDROOT
BRANCH  10  11
ATOM     11  C   UNL     1       0.381   0.415   0.000  0.00  0.00    +0.121 C 
BRANCH  11  12
ATOM     12  C   UNL     1       1.350   0.576   0.000  0.00  0.00    +0.139 C 
BRANCH  12  13
ATOM     13  C   UNL     1       1.698   1.512   0.000  0.00  0.00    +0.367 C 
ATOM     14  O   UNL     1       2.670   1.584   0.000  0.00  0.00    -0.246 OA
ATOM     15  O   UNL     1       1.055   2.325   0.000  0.00  0.00    -0.246 OA
ENDBRANCH  12  13
ENDBRANCH  11  12
ENDBRANCH  10  11
TORSDOF 3
ENDMDL
MODEL       45
REMARK  Name = 2-(prop-1-en-2-yl)-2H,3H,7H-furo[3,2-g]chromen-7-one
REMARK  1 active torsions:
REMARK  status: ('A' for Active; 'I' for Inactive)
REMARK    1  A    between atoms: C_6  and  C_14
REMARK                            x       y       z     vdW  Elec       q    Type
REMARK                         _______ _______ _______ _____ _____    ______ ____
ROOT
ATOM      1  O   UNL     1      -1.618  -0.786   0.000  0.00  0.00    -0.475 OA
ATOM      2  C   UNL     1      -2.165   0.025   0.000  0.00  0.00    +0.189 C 
ATOM      3  C   UNL     1      -1.618   0.791   0.000  0.00  0.00    +0.077 C 
ATOM      4  C   UNL     1      -0.643   0.501   0.000  0.00  0.00    +0.016 A 
ATOM      5  C   UNL     1       0.222   0.999   0.000  0.00  0.00    +0.002 A 
ATOM      6  C   UNL     1       1.092   0.501   0.000  0.00  0.00    +0.035 A 
ATOM      7  C   UNL     1       1.957   0.999   0.000  0.00  0.00    +0.010 A 
ATOM      8  C   UNL     1       2.828   0.501   0.000  0.00  0.00    +0.082 A 
ATOM      9  C   UNL     1       2.828  -0.501   0.000  0.00  0.00    +0.346 A 
ATOM     10  O   UNL     1       3.720  -0.972   0.000  0.00  0.00    -0.244 OA
ATOM     11  O   UNL     1       1.957  -0.999   0.000  0.00  0.00    -0.421 OA
ATOM     12  C   UNL     1       1.092  -0.501   0.000  0.00  0.00    +0.152 A 
ATOM     13  C   UNL     1       0.222  -0.999   0.000  0.00  0.00    +0.074 A 
ATOM     14  C   UNL     1      -0.643  -0.501   0.000  0.00  0.00    +0.138 A 
ENDROOT
BRANCH   2  15
ATOM     15  C   UNL     1      -3.195   0.052   0.000  0.00  0.00    -0.004 C 
ATOM     16  C   UNL     1      -3.720  -0.786   0.000  0.00  0.00    +0.030 C 
ATOM     17  C   UNL     1      -3.666   0.945   0.000  0.00  0.00    -0.006 C 
ENDBRANCH   2  15
TORSDOF 1
ENDMDL
MODEL       46
REMARK  Name = 2-{7-oxo-2H,3H,7H-furo[3,2-g]chromen-2-yl}propan-2-yl 2,4-dichlorobenzoate
REMARK  4 active torsions:
REMARK  status: ('A' for Active; 'I' for Inactive)
REMARK    1  A    between atoms: C_1  and  C_2
REMARK    2  A    between atoms: C_2  and  O_10
REMARK    3  A    between atoms: C_7  and  C_12
REMARK    4  A    between atoms: O_10  and  C_12
REMARK                            x       y       z     vdW  Elec       q    Type
REMARK                         _______ _______ _______ _____ _____    ______ ____
ROOT
ATOM      1  C   UNL     1      -1.648   0.389   0.000  0.00  0.00    +0.173 C 
ATOM      2  C   UNL     1      -1.159  -0.523   0.000  0.00  0.00    +0.047 C 
ATOM      3  C   UNL     1      -2.144  -0.462   0.000  0.00  0.00    +0.047 C 
ENDROOT
BRANCH   1   4
ATOM      4  C   UNL     1      -0.645   0.389   0.000  0.00  0.00    +0.206 C 
ATOM      5  C   UNL     1      -0.089   1.208   0.000  0.00  0.00    +0.077 C 
ATOM      6  C   UNL     1       0.847   0.890   0.000  0.00  0.00    +0.016 A 
ATOM      7  C   UNL     1       0.847  -0.113   0.000  0.00  0.00    +0.138 A 
ATOM      8  C   UNL     1       1.728  -0.609   0.000  0.00  0.00    +0.074 A 
ATOM      9  C   UNL     1       2.585  -0.113   0.000  0.00  0.00    +0.152 A 
ATOM     10  C   UNL     1       2.585   0.890   0.000  0.00  0.00    +0.035 A 
ATOM     11  C   UNL     1       3.435   1.385   0.000  0.00  0.00    +0.010 A 
ATOM     12  C   UNL     1       4.316   0.890   0.000  0.00  0.00    +0.082 A 
ATOM     13  C   UNL     1       4.316  -0.113   0.000  0.00  0.00    +0.346 A 
ATOM     14  O   UNL     1       5.197  -0.609   0.000  0.00  0.00    -0.244 OA
ATOM     15  O   UNL     1       3.435  -0.609   0.000  0.00  0.00    -0.421 OA
ATOM     16  C   UNL     1       1.728   1.385   0.000  0.00  0.00    +0.002 A 
ATOM     17  O   UNL     1      -0.089  -0.407   0.000  0.00  0.00    -0.475 OA
ENDBRANCH   1   4
BRANCH   1  18
ATOM     18  O   UNL     1      -2.144   1.269   0.000  0.00  0.00    -0.449 OA
BRANCH  18  19
ATOM     19  C   UNL     1      -3.141   1.269   0.000  0.00  0.00    +0.342 C 
ATOM     20  O   UNL     1      -3.643   2.119   0.000  0.00  0.00    -0.245 OA
BRANCH  19  21
ATOM     21  C   UNL     1      -3.643   0.419   0.000  0.00  0.00    +0.086 A 
ATOM     22  C   UNL     1      -3.141  -0.462   0.000  0.00  0.00    +0.008 A 
ATOM     23  C   UNL     1      -3.643  -1.312   0.000  0.00  0.00    +0.012 A 
ATOM     24  C   UNL     1      -4.640  -1.288   0.000  0.00  0.00    +0.059 A 
ATOM     25  C   UNL     1      -5.141  -0.431   0.000  0.00  0.00    +0.023 A 
ATOM     26 CL   UNL     1      -5.197  -2.119   0.000  0.00  0.00    -0.082 Cl
ATOM     27  C   UNL     1      -4.640   0.419   0.000  0.00  0.00    +0.065 A 
ATOM     28 CL   UNL     1      -5.197   1.343   0.000  0.00  0.00    -0.082 Cl
ENDBRANCH  19  21
ENDBRANCH  18  19
ENDBRANCH   1  18
TORSDOF 4
ENDMDL
MODEL       47
REMARK  Name = 5,20,31-TRIMETHOXY-11,26-DIMETHYL-2,18-DIOXA-11,26-DIAZAHEPTACYCLO[23.6.2.2^(14,17).1^(19,23).0^(3,8).0^(7,12).0^(29,33)]HEXATRIACONTA-1(31),3,5,7,14,16,19(34),20,22,29,32,35-DODECAEN-4-OL
REMARK  3 active torsions:
REMARK  status: ('A' for Active; 'I' for Inactive)
REMARK    1  A    between atoms: C_15  and  O_33
REMARK    2  A    between atoms: C_18  and  O_35
REMARK    3  A    between atoms: C_25  and  O_40
REMARK                            x       y       z     vdW  Elec       q    Type
REMARK                         _______ _______ _______ _____ _____    ______ ____
ROOT
ATOM      1  C   UNL     1       1.770   1.304   0.000  0.00  0.00    +0.183 A 
ATOM      2  C   UNL     1       0.985   0.824   0.000  0.00  0.00    +0.263 A 
ATOM      3  O   UNL     1       0.179   1.267   0.000  0.00  0.00    -0.280 OA
ATOM      4  C   UNL     1       0.985  -0.087   0.000  0.00  0.00    +0.180 A 
ATOM      5  C   UNL     1       1.770  -0.529   0.000  0.00  0.00    +0.037 A 
ATOM      6  C   UNL     1       2.555  -0.087   0.000  0.00  0.00    -0.005 A 
ATOM      7  C   UNL     1       3.376  -0.529   0.000  0.00  0.00    +0.084 C 
ATOM      8  N   UNL     1       4.172  -0.087   0.000  0.00  0.00    -0.269 NA
ATOM      9  C   UNL     1       4.967  -0.529   0.000  0.00  0.00    +0.090 C 
ATOM     10  C   UNL     1       4.172   0.824   0.000  0.00  0.00    +0.077 C 
ATOM     11  C   UNL     1       3.376   1.304   0.000  0.00  0.00    +0.047 C 
ATOM     12  C   UNL     1       3.376  -1.451   0.000  0.00  0.00    +0.047 C 
ATOM     13  C   UNL     1       2.581  -1.920   0.000  0.00  0.00    -0.020 A 
ATOM     14  C   UNL     1       1.770  -1.451   0.000  0.00  0.00    -0.001 A 
ATOM     15  C   UNL     1       0.948  -1.920   0.000  0.00  0.00    +0.037 A 
ATOM     16  C   UNL     1       0.948  -2.858   0.000  0.00  0.00    +0.145 A 
ATOM     17  C   UNL     1       1.770  -3.321   0.000  0.00  0.00    +0.037 A 
ATOM     18  O   UNL     1      -0.443  -2.868   0.000  0.00  0.00    -0.450 OA
ATOM     19  C   UNL     1      -1.401  -1.235   0.000  0.00  0.00    +0.179 A 
ATOM     20  C   UNL     1      -1.886  -2.036   0.000  0.00  0.00    +0.173 A 
ATOM     21  C   UNL     1      -2.818  -2.036   0.000  0.00  0.00    +0.040 A 
ATOM     22  C   UNL     1      -3.324  -1.235   0.000  0.00  0.00    -0.001 A 
ATOM     23  C   UNL     1      -2.845  -0.429   0.000  0.00  0.00    -0.017 A 
ATOM     24  C   UNL     1      -3.350   0.508   0.000  0.00  0.00    +0.047 C 
ATOM     25  C   UNL     1      -3.350   1.720   0.000  0.00  0.00    +0.084 C 
ATOM     26  N   UNL     1      -4.172   2.189   0.000  0.00  0.00    -0.269 NA
ATOM     27  C   UNL     1      -4.172   3.147   0.000  0.00  0.00    +0.077 C 
ATOM     28  C   UNL     1      -3.350   3.616   0.000  0.00  0.00    +0.044 C 
ATOM     29  C   UNL     1      -2.528   3.126   0.000  0.00  0.00    -0.020 A 
ATOM     30  C   UNL     1      -1.717   3.595   0.000  0.00  0.00    +0.036 A 
ATOM     31  C   UNL     1      -0.895   3.147   0.000  0.00  0.00    +0.173 A 
ATOM     32  C   UNL     1      -0.895   2.215   0.000  0.00  0.00    +0.179 A 
ATOM     33  C   UNL     1      -1.717   1.720   0.000  0.00  0.00    +0.037 A 
ATOM     34  C   UNL     1      -4.967   1.694   0.000  0.00  0.00    +0.090 C 
ATOM     35  C   UNL     1      -2.528   2.215   0.000  0.00  0.00    -0.008 A 
ATOM     36  C   UNL     1      -1.907  -0.429   0.000  0.00  0.00    +0.036 A 
ATOM     37  C   UNL     1       2.581  -2.858   0.000  0.00  0.00    -0.001 A 
ATOM     38  C   UNL     1       2.555   0.835   0.000  0.00  0.00    +0.014 A 
ATOM     39  O   UNL     1       1.770   2.215   0.000  0.00  0.00    -0.447 OA
ENDROOT
BRANCH   4  40
ATOM     40  O   UNL     1       0.190  -0.529   0.000  0.00  0.00    -0.468 OA
ATOM     41  C   UNL     1      -0.595  -0.087   0.000  0.00  0.00    +0.253 C 
ENDBRANCH   4  40
BRANCH  20  42
ATOM     42  O   UNL     1      -1.427  -2.815   0.000  0.00  0.00    -0.468 OA
ATOM     43  C   UNL     1      -1.859  -3.616   0.000  0.00  0.00    +0.253 C 
ENDBRANCH  20  42
BRANCH  31  44
ATOM     44  O   UNL     1      -0.100   3.616   0.000  0.00  0.00    -0.468 OA
ATOM     45  C   UNL     1       0.722   3.174   0.000  0.00  0.00    +0.253 C 
ENDBRANCH  31  44
TORSDOF 3
ENDMDL
MODEL       48
REMARK  Name = 4,8-dimethoxy-8-(3-methylbut-2-en-1-yl)-5H,6H,7H,8H-furo[2,3-b]quinolin-7-ol
REMARK  4 active torsions:
REMARK  status: ('A' for Active; 'I' for Inactive)
REMARK    1  A    between atoms: C_4  and  C_8
REMARK    2  A    between atoms: C_4  and  O_17
REMARK    3  A    between atoms: C_7  and  O_18
REMARK    4  A    between atoms: C_8  and  C_12
REMARK                            x       y       z     vdW  Elec       q    Type
REMARK                         _______ _______ _______ _____ _____    ______ ____
ROOT
ATOM      1  C   UNL     1       0.451  -0.133   0.000  0.00  0.00    +0.088 A 
ATOM      2  C   UNL     1      -0.408  -0.648   0.000  0.00  0.00    +0.159 C 
ATOM      3  C   UNL     1      -1.286  -0.133   0.000  0.00  0.00    +0.183 C 
ATOM      4  O   UNL     1      -2.171  -0.648   0.000  0.00  0.00    -0.220 OA
ATOM      5  C   UNL     1      -1.286   0.856   0.000  0.00  0.00    +0.041 C 
ATOM      6  C   UNL     1      -0.408   1.361   0.000  0.00  0.00    +0.033 C 
ATOM      7  C   UNL     1       0.451   0.856   0.000  0.00  0.00    +0.028 A 
ATOM      8  C   UNL     1       1.311   1.361   0.000  0.00  0.00    +0.140 A 
ATOM      9  C   UNL     1       2.171   0.856   0.000  0.00  0.00    +0.090 A 
ATOM     10  C   UNL     1       2.171  -0.133   0.000  0.00  0.00    +0.232 A 
ATOM     11  O   UNL     1       3.127  -0.451   0.000  0.00  0.00    -0.433 OA
ATOM     12  C   UNL     1       3.700   0.372   0.000  0.00  0.00    +0.182 A 
ATOM     13  C   UNL     1       3.127   1.182   0.000  0.00  0.00    +0.048 A 
ATOM     14  N   UNL     1       1.311  -0.648   0.000  0.00  0.00    -0.213 NA
ENDROOT
BRANCH   2  15
ATOM     15  O   UNL     1      -0.408  -1.647   0.000  0.00  0.00    -0.347 OA
ATOM     16  C   UNL     1       0.451  -2.138   0.000  0.00  0.00    +0.175 C 
ENDBRANCH   2  15
BRANCH   8  17
ATOM     17  O   UNL     1       1.311   2.367   0.000  0.00  0.00    -0.472 OA
ATOM     18  C   UNL     1       2.171   2.858   0.000  0.00  0.00    +0.252 C 
ENDBRANCH   8  17
BRANCH   2  19
ATOM     19  C   UNL     1      -1.078  -1.390   0.000  0.00  0.00    +0.061 C 
BRANCH  19  20
ATOM     20  C   UNL     1      -2.059  -1.182   0.000  0.00  0.00    -0.032 C 
ATOM     21  C   UNL     1      -2.718  -1.923   0.000  0.00  0.00    -0.048 C 
ATOM     22  C   UNL     1      -2.403  -2.858   0.000  0.00  0.00    +0.026 C 
ATOM     23  C   UNL     1      -3.700  -1.716   0.000  0.00  0.00    +0.026 C 
ENDBRANCH  19  20
ENDBRANCH   2  19
TORSDOF 4
ENDMDL
MODEL       49
REMARK  Name = 1-({[2,3-dihydroxy-2-(propan-2-yl)butanoyl]oxy}methyl)-octahydropyrrolizin-4-ium-4-olate
REMARK  6 active torsions:
REMARK  status: ('A' for Active; 'I' for Inactive)
REMARK    1  A    between atoms: C_2  and  C_3
REMARK    2  A    between atoms: C_2  and  C_11
REMARK    3  A    between atoms: C_2  and  C_13
REMARK    4  A    between atoms: C_3  and  O_8
REMARK    5  A    between atoms: C_5  and  C_10
REMARK    6  A    between atoms: O_8  and  C_10
REMARK                            x       y       z     vdW  Elec       q    Type
REMARK                         _______ _______ _______ _____ _____    ______ ____
ROOT
ATOM      1  O   UNL     1       0.148   1.323   0.000  0.00  0.00    -0.447 OA
ENDROOT
BRANCH   1   2
ATOM      2  C   UNL     1       0.700   0.518   0.000  0.00  0.00    +0.347 C 
ATOM      3  O   UNL     1       0.178  -0.370   0.000  0.00  0.00    -0.247 OA
BRANCH   2   4
ATOM      4  C   UNL     1       1.692   0.526   0.000  0.00  0.00    +0.236 C 
ATOM      5  O   UNL     1       1.692  -0.452   0.000  0.00  0.00    -0.212 OA
BRANCH   4   6
ATOM      6  C   UNL     1       1.692   1.510   0.000  0.00  0.00    +0.041 C 
ATOM      7  C   UNL     1       2.549   1.988   0.000  0.00  0.00    +0.003 C 
ATOM      8  C   UNL     1       0.835   2.010   0.000  0.00  0.00    +0.003 C 
ENDBRANCH   4   6
BRANCH   4   9
ATOM      9  C   UNL     1       2.675   0.518   0.000  0.00  0.00    +0.211 C 
ATOM     10  C   UNL     1       3.706   0.526   0.000  0.00  0.00    +0.032 C 
ATOM     11  O   UNL     1       2.684   1.510   0.000  0.00  0.00    -0.227 OA
ENDBRANCH   4   9
ENDBRANCH   2   4
ENDBRANCH   1   2
BRANCH   1  12
ATOM     12  C   UNL     1      -0.835   1.249   0.000  0.00  0.00    +0.214 C 
BRANCH  12  19
ATOM     13  N   UNL     1      -2.158  -1.005   0.000  0.00  0.00    +0.247 N 
ATOM     14  C   UNL     1      -3.141  -1.318   0.000  0.00  0.00    +0.104 C 
ATOM     15  C   UNL     1      -3.706  -0.504   0.000  0.00  0.00    +0.066 C 
ATOM     16  C   UNL     1      -3.141   0.309   0.000  0.00  0.00    +0.052 C 
ATOM     17  C   UNL     1      -1.179  -1.318   0.000  0.00  0.00    +0.104 C 
ATOM     18  C   UNL     1      -0.613  -0.504   0.000  0.00  0.00    +0.070 C 
ATOM     19  C   UNL     1      -1.179   0.309   0.000  0.00  0.00    +0.090 C 
ATOM     20  O   UNL     1      -2.158  -2.010   0.000  0.00  0.00    -0.773 OA
ATOM     21  C   UNL     1      -2.158  -0.004   0.000  0.00  0.00    +0.086 C 
ENDBRANCH  12  19
ENDBRANCH   1  12
TORSDOF 6
ENDMDL
MODEL       50
REMARK  Name = 3,3-dimethyl-6-(5-methyl-3-phenyl-1,2-oxazole-4-amido)-7-oxo-4-thia-1-azabicyclo[3.2.0]heptane-2-carboxylate
REMARK  4 active torsions:
REMARK  status: ('A' for Active; 'I' for Inactive)
REMARK    1  A    between atoms: CA_4  and  N_9
REMARK    2  A    between atoms: CA_5  and  C_13
REMARK    3  A    between atoms: C_7  and  C_10
REMARK    4  A    between atoms: C_12  and  C_20
REMARK                            x       y       z     vdW  Elec       q    Type
REMARK                         _______ _______ _______ _____ _____    ______ ____
ROOT
ATOM      1  N   UNL     1      -0.474   0.402   0.000  0.00  0.00    -0.191 NA
ATOM      2  C   UNL     1      -1.412   0.164   0.000  0.00  0.00    +0.270 C 
ATOM      3  O   UNL     1      -1.685  -0.804   0.000  0.00  0.00    -0.268 OA
ENDROOT
BRANCH   1  12
ATOM      4  N   UNL     1       1.193  -1.315   0.000  0.00  0.00    -0.264 N 
ATOM      5  CA  UNL     1       2.146  -1.613   0.000  0.00  0.00    +0.122 C 
ATOM      6  C   UNL     1       2.722  -0.804   0.000  0.00  0.00    +0.063 C 
ATOM      7  S   UNL     1       2.121   0.015   0.000  0.00  0.00    -0.119 S 
ATOM      8  C   UNL     1       3.372  -0.134   0.000  0.00  0.00    +0.013 C 
ATOM      9  C   UNL     1       3.511  -1.434   0.000  0.00  0.00    +0.013 C 
ATOM     10  C   UNL     1       0.206  -1.315   0.000  0.00  0.00    +0.249 C 
ATOM     11  O   UNL     1      -0.474  -2.015   0.000  0.00  0.00    -0.273 OA
ATOM     12  CA  UNL     1       0.206  -0.303   0.000  0.00  0.00    +0.200 C 
ATOM     13  C   UNL     1       1.193  -0.303   0.000  0.00  0.00    +0.153 C 
BRANCH   5  14
ATOM     14  C   UNL     1       2.479  -2.551   0.000  0.00  0.00    +0.069 C 
ATOM     15  OXT UNL     1       3.466  -2.749   0.000  0.00  0.00    -0.547 OA
ATOM     16  O   UNL     1       1.710  -3.717   0.000  0.00  0.00    -0.547 OA
ENDBRANCH   5  14
ENDBRANCH   1  12
BRANCH   2  17
ATOM     17  C   UNL     1      -2.082   0.873   0.000  0.00  0.00    +0.109 A 
ATOM     18  C   UNL     1      -3.049   0.754   0.000  0.00  0.00    +0.159 A 
ATOM     19  C   UNL     1      -3.511  -0.104   0.000  0.00  0.00    +0.076 C 
ATOM     20  O   UNL     1      -3.461   1.657   0.000  0.00  0.00    -0.358 OA
ATOM     21  N   UNL     1      -2.772   2.327   0.000  0.00  0.00    -0.077 NA
ATOM     22  C   UNL     1      -1.898   1.861   0.000  0.00  0.00    +0.127 A 
BRANCH  22  23
ATOM     23  C   UNL     1      -1.015   2.298   0.000  0.00  0.00    +0.021 A 
ATOM     24  C   UNL     1      -0.960   3.270   0.000  0.00  0.00    +0.002 A 
ATOM     25  C   UNL     1      -0.082   3.717   0.000  0.00  0.00    +0.000 A 
ATOM     26  C   UNL     1       0.752   3.186   0.000  0.00  0.00    +0.000 A 
ATOM     27  C   UNL     1       0.682   2.208   0.000  0.00  0.00    +0.000 A 
ATOM     28  C   UNL     1      -0.201   1.771   0.000  0.00  0.00    +0.002 A 
ENDBRANCH  22  23
ENDBRANCH   2  17
TORSDOF 4
ENDMDL
MODEL       51
REMARK  Name = N-{14-[(BUTAN-2-YL)AMINO]-3,4,5-TRIMETHOXY-13-OXOTRICYCLO[9.5.0.0^(2,7)]HEXADECA-1(16),2,4,6,11,14-HEXAEN-10-YL}ACETAMIDE
REMARK  7 active torsions:
REMARK  status: ('A' for Active; 'I' for Inactive)
REMARK    1  A    between atoms: C_4  and  O_22
REMARK    2  A    between atoms: C_6  and  O_23
REMARK    3  A    between atoms: C_9  and  N_16
REMARK    4  A    between atoms: C_11  and  N_14
REMARK    5  A    between atoms: C_13  and  O_24
REMARK    6  A    between atoms: N_16  and  C_25
REMARK    7  A    between atoms: C_25  and  C_30
REMARK                            x       y       z     vdW  Elec       q    Type
REMARK                         _______ _______ _______ _____ _____    ______ ____
ROOT
ATOM      1  C   UNL     1       0.135   0.399   0.000  0.00  0.00    +0.000 A 
ATOM      2  C   UNL     1      -0.499  -0.395   0.000  0.00  0.00    +0.001 A 
ATOM      3  C   UNL     1      -0.272  -1.387   0.000  0.00  0.00    +0.019 A 
ATOM      4  C   UNL     1       0.622  -1.794   0.000  0.00  0.00    +0.104 A 
ATOM      5  C   UNL     1       1.567  -1.373   0.000  0.00  0.00    +0.210 A 
ATOM      6  O   UNL     1       2.361  -1.997   0.000  0.00  0.00    -0.285 OA
ATOM      7  C   UNL     1       1.813  -0.395   0.000  0.00  0.00    +0.040 A 
ATOM      8  C   UNL     1      -0.456   1.236   0.000  0.00  0.00    +0.033 A 
ATOM      9  C   UNL     1      -0.215   2.214   0.000  0.00  0.00    -0.016 A 
ATOM     10  C   UNL     1       0.664   2.654   0.000  0.00  0.00    +0.028 C 
ATOM     11  C   UNL     1       1.586   2.219   0.000  0.00  0.00    +0.023 C 
ATOM     12  C   UNL     1       1.836   1.236   0.000  0.00  0.00    +0.113 C 
ATOM     13  C   UNL     1      -0.967   2.909   0.000  0.00  0.00    +0.036 A 
ATOM     14  C   UNL     1      -1.931   2.626   0.000  0.00  0.00    +0.175 A 
ATOM     15  C   UNL     1      -2.172   1.666   0.000  0.00  0.00    +0.206 A 
ATOM     16  C   UNL     1      -1.439   0.952   0.000  0.00  0.00    +0.175 A 
ATOM     17  C   UNL     1       1.175   0.399   0.000  0.00  0.00    -0.007 A 
ENDROOT
BRANCH  12  18
ATOM     18  N   UNL     1       2.507   0.418   0.000  0.00  0.00    -0.307 N 
ATOM     19  H   UNL     1       3.495   0.574   0.000  0.00  0.00    +0.149 HD
ATOM     20  C   UNL     1       2.857  -0.451   0.000  0.00  0.00    +0.223 C 
ATOM     21  C   UNL     1       3.836  -0.451   0.000  0.00  0.00    +0.095 C 
ATOM     22  O   UNL     1       2.418  -1.104   0.000  0.00  0.00    -0.275 OA
ENDBRANCH  12  18
BRANCH  15  23
ATOM     23  O   UNL     1      -3.136   1.406   0.000  0.00  0.00    -0.465 OA
ATOM     24  C   UNL     1      -3.836   2.120   0.000  0.00  0.00    +0.253 C 
ENDBRANCH  15  23
BRANCH  14  25
ATOM     25  O   UNL     1      -2.644   3.297   0.000  0.00  0.00    -0.468 OA
ATOM     26  C   UNL     1      -2.418   4.285   0.000  0.00  0.00    +0.253 C 
ENDBRANCH  14  25
BRANCH  16  27
ATOM     27  O   UNL     1      -1.690  -0.026   0.000  0.00  0.00    -0.468 OA
ATOM     28  C   UNL     1      -2.644  -0.281   0.000  0.00  0.00    +0.253 C 
ENDBRANCH  16  27
BRANCH   4  29
ATOM     29  N   UNL     1       0.603  -2.805   0.000  0.00  0.00    -0.236 NA
BRANCH  29  30
ATOM     30  C   UNL     1       1.458  -3.301   0.000  0.00  0.00    +0.093 C 
ATOM     31  C   UNL     1       1.458  -4.285   0.000  0.00  0.00    +0.023 C 
BRANCH  30  32
ATOM     32  C   UNL     1       2.323  -2.815   0.000  0.00  0.00    +0.022 C 
ATOM     33  C   UNL     1       3.188  -3.316   0.000  0.00  0.00    +0.002 C 
ENDBRANCH  30  32
ENDBRANCH  29  30
ENDBRANCH   4  29
TORSDOF 7
ENDMDL
MODEL       52
REMARK  Name = N-{14-[(2-HYDROXYETHYL)AMINO]-3,4,5-TRIMETHOXY-13-OXOTRICYCLO[9.5.0.0^(2,7)]HEXADECA-1(16),2,4,6,11,14-HEXAEN-10-YL}ACETAMIDE
REMARK  7 active torsions:
REMARK  status: ('A' for Active; 'I' for Inactive)
REMARK    1  A    between atoms: C_4  and  O_22
REMARK    2  A    between atoms: C_6  and  O_23
REMARK    3  A    between atoms: C_10  and  N_14
REMARK    4  A    between atoms: C_11  and  O_24
REMARK    5  A    between atoms: C_12  and  N_21
REMARK    6  A    between atoms: N_21  and  C_27
REMARK    7  A    between atoms: C_27  and  C_28
REMARK                            x       y       z     vdW  Elec       q    Type
REMARK                         _______ _______ _______ _____ _____    ______ ____
ROOT
ATOM      1  C   UNL     1       0.140  -0.090   0.000  0.00  0.00    +0.000 A 
ATOM      2  C   UNL     1      -0.495  -0.895   0.000  0.00  0.00    +0.001 A 
ATOM      3  C   UNL     1      -0.267  -1.869   0.000  0.00  0.00    +0.019 A 
ATOM      4  C   UNL     1       0.622  -2.277   0.000  0.00  0.00    +0.104 A 
ATOM      5  C   UNL     1       1.559  -1.853   0.000  0.00  0.00    +0.210 A 
ATOM      6  O   UNL     1       2.348  -2.483   0.000  0.00  0.00    -0.285 OA
ATOM      7  C   UNL     1       1.813  -0.895   0.000  0.00  0.00    +0.040 A 
ATOM      8  C   UNL     1      -0.458   0.752   0.000  0.00  0.00    +0.033 A 
ATOM      9  C   UNL     1      -0.220   1.726   0.000  0.00  0.00    -0.016 A 
ATOM     10  C   UNL     1       0.670   2.155   0.000  0.00  0.00    +0.028 C 
ATOM     11  C   UNL     1       1.586   1.726   0.000  0.00  0.00    +0.023 C 
ATOM     12  C   UNL     1       1.829   0.752   0.000  0.00  0.00    +0.113 C 
ATOM     13  C   UNL     1      -0.966   2.409   0.000  0.00  0.00    +0.036 A 
ATOM     14  C   UNL     1      -1.935   2.134   0.000  0.00  0.00    +0.175 A 
ATOM     15  C   UNL     1      -2.163   1.181   0.000  0.00  0.00    +0.206 A 
ATOM     16  C   UNL     1      -1.443   0.466   0.000  0.00  0.00    +0.175 A 
ATOM     17  C   UNL     1       1.178  -0.090   0.000  0.00  0.00    -0.007 A 
ENDROOT
BRANCH  12  18
ATOM     18  N   UNL     1       2.497  -0.069   0.000  0.00  0.00    -0.307 N 
ATOM     19  H   UNL     1       3.492   0.085   0.000  0.00  0.00    +0.149 HD
ATOM     20  C   UNL     1       2.857  -0.943   0.000  0.00  0.00    +0.223 C 
ATOM     21  C   UNL     1       3.826  -0.943   0.000  0.00  0.00    +0.095 C 
ATOM     22  O   UNL     1       2.412  -1.594   0.000  0.00  0.00    -0.275 OA
ENDBRANCH  12  18
BRANCH  15  23
ATOM     23  O   UNL     1      -3.127   0.911   0.000  0.00  0.00    -0.465 OA
ATOM     24  C   UNL     1      -3.826   1.626   0.000  0.00  0.00    +0.253 C 
ENDBRANCH  15  23
BRANCH  14  25
ATOM     25  O   UNL     1      -2.650   2.806   0.000  0.00  0.00    -0.468 OA
ATOM     26  C   UNL     1      -2.417   3.802   0.000  0.00  0.00    +0.253 C 
ENDBRANCH  14  25
BRANCH  16  27
ATOM     27  O   UNL     1      -1.697  -0.514   0.000  0.00  0.00    -0.468 OA
ATOM     28  C   UNL     1      -2.650  -0.773   0.000  0.00  0.00    +0.253 C 
ENDBRANCH  16  27
BRANCH   4  29
ATOM     29  N   UNL     1       0.591  -3.283   0.000  0.00  0.00    -0.232 NA
BRANCH  29  30
ATOM     30  C   UNL     1       1.459  -3.791   0.000  0.00  0.00    +0.148 C 
BRANCH  30  31
ATOM     31  C   UNL     1       2.322  -3.293   0.000  0.00  0.00    +0.205 C 
ATOM     32  O   UNL     1       3.190  -3.802   0.000  0.00  0.00    -0.218 OA
ENDBRANCH  30  31
ENDBRANCH  29  30
ENDBRANCH   4  29
TORSDOF 7
ENDMDL
MODEL       53
REMARK  Name = 14-[(2-HYDROXYETHYL)AMINO]-3,4,5-TRIMETHOXY-10-(METHYLAMINO)TRICYCLO[9.5.0.0^(2,7)]HEXADECA-1(16),2,4,6,11,14-HEXAEN-13-ONE
REMARK  7 active torsions:
REMARK  status: ('A' for Active; 'I' for Inactive)
REMARK    1  A    between atoms: C_4  and  O_19
REMARK    2  A    between atoms: C_6  and  O_20
REMARK    3  A    between atoms: C_10  and  O_22
REMARK    4  A    between atoms: C_11  and  N_18
REMARK    5  A    between atoms: C_14  and  N_21
REMARK    6  A    between atoms: N_18  and  C_24
REMARK    7  A    between atoms: C_24  and  C_26
REMARK                            x       y       z     vdW  Elec       q    Type
REMARK                         _______ _______ _______ _____ _____    ______ ____
ROOT
ATOM      1  C   UNL     1       0.303  -0.085   0.000  0.00  0.00    -0.000 A 
ATOM      2  C   UNL     1      -0.326  -0.873   0.000  0.00  0.00    +0.001 A 
ATOM      3  C   UNL     1      -0.101  -1.858   0.000  0.00  0.00    +0.019 A 
ATOM      4  C   UNL     1       0.786  -2.261   0.000  0.00  0.00    +0.104 A 
ATOM      5  C   UNL     1       1.724  -1.843   0.000  0.00  0.00    +0.210 A 
ATOM      6  O   UNL     1       2.512  -2.463   0.000  0.00  0.00    -0.285 OA
ATOM      7  C   UNL     1       1.968  -0.873   0.000  0.00  0.00    +0.040 A 
ATOM      8  C   UNL     1      -0.284   0.746   0.000  0.00  0.00    +0.033 A 
ATOM      9  C   UNL     1      -0.044   1.717   0.000  0.00  0.00    -0.016 A 
ATOM     10  C   UNL     1       0.828   2.153   0.000  0.00  0.00    +0.028 C 
ATOM     11  C   UNL     1       1.743   1.722   0.000  0.00  0.00    +0.019 C 
ATOM     12  C   UNL     1       1.991   0.746   0.000  0.00  0.00    +0.094 C 
ATOM     13  C   UNL     1      -0.790   2.406   0.000  0.00  0.00    +0.036 A 
ATOM     14  C   UNL     1      -1.747   2.125   0.000  0.00  0.00    +0.175 A 
ATOM     15  C   UNL     1      -1.986   1.173   0.000  0.00  0.00    +0.206 A 
ATOM     16  C   UNL     1      -1.260   0.464   0.000  0.00  0.00    +0.175 A 
ATOM     17  C   UNL     1       1.335  -0.085   0.000  0.00  0.00    -0.010 A 
ENDROOT
BRANCH  12  18
ATOM     18  N   UNL     1       2.657  -0.066   0.000  0.00  0.00    -0.298 NA
ATOM     19  H   UNL     1       3.638   0.089   0.000  0.00  0.00    +0.123 HD
ATOM     20  C   UNL     1       3.004  -0.929   0.000  0.00  0.00    +0.086 C 
ENDBRANCH  12  18
BRANCH  15  21
ATOM     21  O   UNL     1      -2.943   0.915   0.000  0.00  0.00    -0.465 OA
ATOM     22  C   UNL     1      -3.638   1.623   0.000  0.00  0.00    +0.253 C 
ENDBRANCH  15  21
BRANCH  14  23
ATOM     23  O   UNL     1      -2.456   2.791   0.000  0.00  0.00    -0.468 OA
ATOM     24  C   UNL     1      -2.231   3.771   0.000  0.00  0.00    +0.253 C 
ENDBRANCH  14  23
BRANCH  16  25
ATOM     25  O   UNL     1      -1.508  -0.507   0.000  0.00  0.00    -0.468 OA
ATOM     26  C   UNL     1      -2.456  -0.760   0.000  0.00  0.00    +0.253 C 
ENDBRANCH  16  25
BRANCH   4  27
ATOM     27  N   UNL     1       0.767  -3.265   0.000  0.00  0.00    -0.232 NA
BRANCH  27  28
ATOM     28  C   UNL     1       1.616  -3.757   0.000  0.00  0.00    +0.148 C 
BRANCH  28  29
ATOM     29  C   UNL     1       2.474  -3.274   0.000  0.00  0.00    +0.205 C 
ATOM     30  O   UNL     1       3.333  -3.771   0.000  0.00  0.00    -0.218 OA
ENDBRANCH  28  29
ENDBRANCH  27  28
ENDBRANCH   4  27
TORSDOF 7
ENDMDL
MODEL       54
REMARK  Name = 3-[1-(3-nitrobenzenesulfonyl)piperidin-2-yl]pyridine
REMARK  4 active torsions:
REMARK  status: ('A' for Active; 'I' for Inactive)
REMARK    1  A    between atoms: S_1  and  N_2
REMARK    2  A    between atoms: S_1  and  C_4
REMARK    3  A    between atoms: N_3  and  C_7
REMARK    4  A    between atoms: C_5  and  C_11
REMARK                            x       y       z     vdW  Elec       q    Type
REMARK                         _______ _______ _______ _____ _____    ______ ____
ROOT
ATOM      1  S   UNL     1      -0.259  -1.004   0.000  0.00  0.00    +0.064 S 
ATOM      2  O   UNL     1      -1.260  -1.004   0.000  0.00  0.00    -0.153 OA
ATOM      3  O   UNL     1      -0.264  -2.000   0.000  0.00  0.00    -0.153 OA
ENDROOT
BRANCH   1   4
ATOM      4  C   UNL     1       0.742  -1.004   0.000  0.00  0.00    +0.128 A 
ATOM      5  C   UNL     1       1.240  -1.869   0.000  0.00  0.00    +0.020 A 
ATOM      6  C   UNL     1       2.236  -1.864   0.000  0.00  0.00    +0.008 A 
ATOM      7  C   UNL     1       2.734  -0.999   0.000  0.00  0.00    +0.075 A 
ATOM      8  C   UNL     1       2.231  -0.133   0.000  0.00  0.00    +0.291 A 
ATOM      9  C   UNL     1       1.235  -0.138   0.000  0.00  0.00    +0.095 A 
BRANCH   8  10
ATOM     10  N   UNL     1       2.724   0.737   0.000  0.00  0.00    +0.081 N 
ATOM     11  O   UNL     1       2.226   1.597   0.000  0.00  0.00    +0.041 OA
ATOM     12  O   UNL     1       3.720   0.737   0.000  0.00  0.00    -0.576 OA
ENDBRANCH   8  10
ENDBRANCH   1   4
BRANCH   1  13
ATOM     13  N   UNL     1      -0.259  -0.002   0.000  0.00  0.00    -0.153 NA
ATOM     14  C   UNL     1       0.606   0.501   0.000  0.00  0.00    +0.096 C 
ATOM     15  C   UNL     1       0.606   1.502   0.000  0.00  0.00    +0.019 C 
ATOM     16  C   UNL     1      -0.264   2.000   0.000  0.00  0.00    +0.003 C 
ATOM     17  C   UNL     1      -1.135   1.502   0.000  0.00  0.00    +0.022 C 
ATOM     18  C   UNL     1      -1.129   0.501   0.000  0.00  0.00    +0.103 C 
BRANCH  18  19
ATOM     19  C   UNL     1      -1.990  -0.008   0.000  0.00  0.00    +0.013 A 
ATOM     20  C   UNL     1      -2.855   0.496   0.000  0.00  0.00    +0.000 A 
ATOM     21  C   UNL     1      -3.720  -0.008   0.000  0.00  0.00    +0.020 A 
ATOM     22  C   UNL     1      -3.720  -1.014   0.000  0.00  0.00    +0.099 A 
ATOM     23  N   UNL     1      -2.855  -1.512   0.000  0.00  0.00    -0.243 NA
ATOM     24  C   UNL     1      -1.990  -1.014   0.000  0.00  0.00    +0.096 A 
ENDBRANCH  18  19
ENDBRANCH   1  13
TORSDOF 4
ENDMDL
MODEL       55
REMARK  Name = N~1~-[3-(heptylsulfanyl)-1,2,4-thiadiazol-5-yl]-2-(6-oxo-7,11-diazatricyclo[7.3.1.0~2,7~]trideca-2,4-dien-11-yl)acetamide
REMARK  9 active torsions:
REMARK  status: ('A' for Active; 'I' for Inactive)
REMARK    1  A    between atoms: C_6  and  S_24
REMARK    2  A    between atoms: N_9  and  C_18
REMARK    3  A    between atoms: C_12  and  C_18
REMARK    4  A    between atoms: S_24  and  C_25
REMARK    5  A    between atoms: C_25  and  C_26
REMARK    6  A    between atoms: C_26  and  C_29
REMARK    7  A    between atoms: C_27  and  C_28
REMARK    8  A    between atoms: C_28  and  C_30
REMARK    9  A    between atoms: C_29  and  C_30
REMARK                            x       y       z     vdW  Elec       q    Type
REMARK                         _______ _______ _______ _____ _____    ______ ____
ROOT
ATOM      1  C   UNL     1      -1.784   1.336   0.000  0.00  0.00    +0.264 C 
ATOM      2  O   UNL     1      -1.784   0.335   0.000  0.00  0.00    -0.271 OA
ATOM      3  N   UNL     1      -0.913   1.839   0.000  0.00  0.00    -0.152 NA
ATOM      4  C   UNL     1      -0.048   1.336   0.000  0.00  0.00    +0.205 A 
ATOM      5  S   UNL     1       0.058   0.340   0.000  0.00  0.00    +0.052 S 
ATOM      6  N   UNL     1       1.039   0.129   0.000  0.00  0.00    -0.181 NA
ATOM      7  C   UNL     1       1.542   0.994   0.000  0.00  0.00    +0.198 A 
ATOM      8  N   UNL     1       0.873   1.744   0.000  0.00  0.00    -0.196 NA
ENDROOT
BRANCH   1   9
ATOM      9  C   UNL     1      -2.649   1.839   0.000  0.00  0.00    +0.161 C 
BRANCH   9  16
ATOM     10  N   UNL     1      -6.110  -0.169   0.000  0.00  0.00    -0.299 N 
ATOM     11  C   UNL     1      -5.245  -0.671   0.000  0.00  0.00    +0.110 C 
ATOM     12  C   UNL     1      -4.380  -0.173   0.000  0.00  0.00    +0.039 C 
ATOM     13  C   UNL     1      -4.380   0.828   0.000  0.00  0.00    +0.011 C 
ATOM     14  C   UNL     1      -5.240   1.331   0.000  0.00  0.00    +0.054 C 
ATOM     15  C   UNL     1      -4.385   1.839   0.000  0.00  0.00    +0.078 C 
ATOM     16  N   UNL     1      -3.514   1.341   0.000  0.00  0.00    -0.265 NA
ATOM     17  C   UNL     1      -3.514   0.330   0.000  0.00  0.00    +0.074 C 
ATOM     18  C   UNL     1      -6.971  -0.667   0.000  0.00  0.00    +0.261 A 
ATOM     19  O   UNL     1      -6.966  -1.663   0.000  0.00  0.00    -0.267 OA
ATOM     20  C   UNL     1      -7.836  -0.169   0.000  0.00  0.00    +0.061 A 
ATOM     21  C   UNL     1      -7.836   0.833   0.000  0.00  0.00    +0.006 A 
ATOM     22  C   UNL     1      -6.971   1.341   0.000  0.00  0.00    +0.013 A 
ATOM     23  C   UNL     1      -6.105   0.833   0.000  0.00  0.00    +0.041 A 
ENDBRANCH   9  16
ENDBRANCH   1   9
BRANCH   7  24
ATOM     24  S   UNL     1       2.533   1.095   0.000  0.00  0.00    -0.075 S 
BRANCH  24  25
ATOM     25  C   UNL     1       3.117   0.284   0.000  0.00  0.00    +0.065 C 
BRANCH  25  26
ATOM     26  C   UNL     1       4.108   0.385   0.000  0.00  0.00    +0.012 C 
BRANCH  26  27
ATOM     27  C   UNL     1       4.686  -0.425   0.000  0.00  0.00    +0.001 C 
BRANCH  27  28
ATOM     28  C   UNL     1       5.678  -0.325   0.000  0.00  0.00    +0.000 C 
BRANCH  28  29
ATOM     29  C   UNL     1       6.261  -1.135   0.000  0.00  0.00    +0.000 C 
BRANCH  29  30
ATOM     30  C   UNL     1       7.253  -1.034   0.000  0.00  0.00    +0.000 C 
ATOM     31  C   UNL     1       7.836  -1.839   0.000  0.00  0.00    +0.000 C 
ENDBRANCH  29  30
ENDBRANCH  28  29
ENDBRANCH  27  28
ENDBRANCH  26  27
ENDBRANCH  25  26
ENDBRANCH  24  25
ENDBRANCH   7  24
TORSDOF 9
ENDMDL
MODEL       56
REMARK  Name = (11E)-14,16-dimethoxy-3-methyl-3,4,5,6,7,8,9,10-octahydro-1H-2-benzoxacyclotetradecine-1,7-dione
REMARK  2 active torsions:
REMARK  status: ('A' for Active; 'I' for Inactive)
REMARK    1  A    between atoms: C_4  and  O_14
REMARK    2  A    between atoms: C_10  and  O_16
REMARK                            x       y       z     vdW  Elec       q    Type
REMARK                         _______ _______ _______ _____ _____    ______ ____
ROOT
ATOM      1  C   UNL     1      -0.878   0.737   0.000  0.00  0.00    +0.344 C 
ATOM      2  O   UNL     1      -0.878   1.734   0.000  0.00  0.00    -0.245 OA
ATOM      3  O   UNL     1       0.000   0.248   0.000  0.00  0.00    -0.449 OA
ATOM      4  C   UNL     1       0.872   0.737   0.000  0.00  0.00    +0.169 C 
ATOM      5  C   UNL     1       0.872   1.715   0.000  0.00  0.00    +0.047 C 
ATOM      6  C   UNL     1       1.737   0.248   0.000  0.00  0.00    +0.044 C 
ATOM      7  C   UNL     1       2.615   0.737   0.000  0.00  0.00    +0.011 C 
ATOM      8  C   UNL     1       3.487   0.248   0.000  0.00  0.00    +0.065 C 
ATOM      9  C   UNL     1       3.487  -0.750   0.000  0.00  0.00    +0.151 C 
ATOM     10  C   UNL     1       2.615  -1.251   0.000  0.00  0.00    +0.065 C 
ATOM     11  C   UNL     1       1.737  -0.750   0.000  0.00  0.00    +0.012 C 
ATOM     12  C   UNL     1       0.872  -1.251   0.000  0.00  0.00    +0.026 C 
ATOM     13  C   UNL     1       0.000  -0.750   0.000  0.00  0.00    -0.026 C 
ATOM     14  C   UNL     1      -0.878  -1.251   0.000  0.00  0.00    -0.004 C 
ATOM     15  C   UNL     1      -1.750  -0.750   0.000  0.00  0.00    +0.012 A 
ATOM     16  C   UNL     1      -2.628  -1.251   0.000  0.00  0.00    +0.037 A 
ATOM     17  C   UNL     1      -3.493  -0.750   0.000  0.00  0.00    +0.142 A 
ATOM     18  C   UNL     1      -3.493   0.248   0.000  0.00  0.00    +0.074 A 
ATOM     19  C   UNL     1      -2.628   0.737   0.000  0.00  0.00    +0.148 A 
ATOM     20  O   UNL     1       4.365  -1.251   0.000  0.00  0.00    -0.296 OA
ATOM     21  C   UNL     1      -1.750   0.248   0.000  0.00  0.00    +0.110 A 
ENDROOT
BRANCH  17  22
ATOM     22  O   UNL     1      -4.365  -1.251   0.000  0.00  0.00    -0.471 OA
ATOM     23  C   UNL     1      -4.365  -2.230   0.000  0.00  0.00    +0.252 C 
ENDBRANCH  17  22
BRANCH  19  24
ATOM     24  O   UNL     1      -2.628   1.734   0.000  0.00  0.00    -0.471 OA
ATOM     25  C   UNL     1      -3.481   2.230   0.000  0.00  0.00    +0.252 C 
ENDBRANCH  19  24
TORSDOF 2
ENDMDL
MODEL       57
REMARK  Name = 3,6,9-trimethyl-4-[(2-methylprop-2-enoyl)oxy]-2,7-dioxo-2H,3H,3aH,4H,5H,7H,9aH,9bH-azuleno[4,5-b]furan-3-yl 2-methylprop-2-enoate
REMARK  6 active torsions:
REMARK  status: ('A' for Active; 'I' for Inactive)
REMARK    1  A    between atoms: C_1  and  O_12
REMARK    2  A    between atoms: C_11  and  O_16
REMARK    3  A    between atoms: O_12  and  C_14
REMARK    4  A    between atoms: C_14  and  C_18
REMARK    5  A    between atoms: C_15  and  O_16
REMARK    6  A    between atoms: C_15  and  C_19
REMARK                            x       y       z     vdW  Elec       q    Type
REMARK                         _______ _______ _______ _____ _____    ______ ____
ROOT
ATOM      1  C   UNL     1       0.418  -1.284   0.000  0.00  0.00    +0.231 C 
ATOM      2  C   UNL     1       0.979  -0.413   0.000  0.00  0.00    +0.056 C 
ATOM      3  C   UNL     1      -0.113  -2.110   0.000  0.00  0.00    +0.354 C 
ATOM      4  O   UNL     1       0.272  -3.065   0.000  0.00  0.00    -0.246 OA
ATOM      5  O   UNL     1      -1.089  -1.854   0.000  0.00  0.00    -0.449 OA
ATOM      6  C   UNL     1      -1.151  -0.877   0.000  0.00  0.00    +0.184 C 
ATOM      7  C   UNL     1      -2.000  -0.369   0.000  0.00  0.00    +0.084 C 
ATOM      8  C   UNL     1      -2.892  -0.837   0.000  0.00  0.00    -0.033 C 
ATOM      9  C   UNL     1      -3.060  -1.854   0.000  0.00  0.00    +0.027 C 
ATOM     10  C   UNL     1      -3.591  -0.117   0.000  0.00  0.00    +0.034 C 
ATOM     11  C   UNL     1      -3.144   0.753   0.000  0.00  0.00    +0.191 C 
ATOM     12  O   UNL     1      -3.423   1.615   0.000  0.00  0.00    -0.287 OA
ATOM     13  C   UNL     1      -2.167   0.608   0.000  0.00  0.00    +0.016 C 
ATOM     14  C   UNL     1      -1.514   1.350   0.000  0.00  0.00    -0.041 C 
ATOM     15  C   UNL     1      -1.871   2.304   0.000  0.00  0.00    +0.026 C 
ATOM     16  C   UNL     1      -0.515   1.284   0.000  0.00  0.00    +0.066 C 
ATOM     17  C   UNL     1       0.077   0.458   0.000  0.00  0.00    +0.180 C 
ATOM     18  C   UNL     1      -0.219  -0.497   0.000  0.00  0.00    +0.128 C 
ENDROOT
BRANCH   1  19
ATOM     19  O   UNL     1       1.416  -1.248   0.000  0.00  0.00    -0.442 OA
BRANCH  19  20
ATOM     20  C   UNL     1       1.977  -2.150   0.000  0.00  0.00    +0.337 C 
ATOM     21  O   UNL     1       1.509  -3.020   0.000  0.00  0.00    -0.245 OA
BRANCH  20  22
ATOM     22  C   UNL     1       2.963  -2.119   0.000  0.00  0.00    +0.054 C 
ATOM     23  C   UNL     1       3.471  -1.239   0.000  0.00  0.00    +0.038 C 
ATOM     24  C   UNL     1       3.591  -2.914   0.000  0.00  0.00    +0.002 C 
ENDBRANCH  20  22
ENDBRANCH  19  20
ENDBRANCH   1  19
BRANCH  17  25
ATOM     25  O   UNL     1       1.076   0.564   0.000  0.00  0.00    -0.449 OA
BRANCH  25  26
ATOM     26  C   UNL     1       1.478   1.496   0.000  0.00  0.00    +0.337 C 
ATOM     27  O   UNL     1       2.477   1.602   0.000  0.00  0.00    -0.245 OA
BRANCH  26  28
ATOM     28  C   UNL     1       0.886   2.283   0.000  0.00  0.00    +0.054 C 
ATOM     29  C   UNL     1      -0.135   2.397   0.000  0.00  0.00    +0.038 C 
ATOM     30  C   UNL     1       1.385   3.065   0.000  0.00  0.00    +0.002 C 
ENDBRANCH  26  28
ENDBRANCH  25  26
ENDBRANCH  17  25
TORSDOF 6
ENDMDL
MODEL       58
REMARK  Name = 3a,5a-dihydroxy-9a-[(E)-(hydroxyimino)methyl]-11a-methyl-1-(5-oxo-2,5-dihydrofuran-3-yl)-hexadecahydro-1H-cyclopenta[a]phenanthren-7-yl acetate
REMARK  4 active torsions:
REMARK  status: ('A' for Active; 'I' for Inactive)
REMARK    1  A    between atoms: C_2  and  C_21
REMARK    2  A    between atoms: C_7  and  C_8
REMARK    3  A    between atoms: C_22  and  O_25
REMARK    4  A    between atoms: C_24  and  O_25
REMARK                            x       y       z     vdW  Elec       q    Type
REMARK                         _______ _______ _______ _____ _____    ______ ____
ROOT
ATOM      1  C   UNL     1       1.832  -0.795   0.000  0.00  0.00    +0.123 C 
ATOM      2  O   UNL     1       1.832  -1.824   0.000  0.00  0.00    -0.226 OA
ATOM      3  C   UNL     1       2.741  -1.098   0.000  0.00  0.00    +0.030 C 
ATOM      4  C   UNL     1       3.282  -0.319   0.000  0.00  0.00    +0.007 C 
ATOM      5  C   UNL     1       2.741   0.438   0.000  0.00  0.00    +0.024 C 
ATOM      6  C   UNL     1       0.988  -1.293   0.000  0.00  0.00    +0.038 C 
ATOM      7  C   UNL     1       0.988  -2.251   0.000  0.00  0.00    +0.001 C 
ATOM      8  C   UNL     1       0.143  -2.706   0.000  0.00  0.00    +0.031 C 
ATOM      9  C   UNL     1      -0.690  -2.251   0.000  0.00  0.00    +0.135 C 
ATOM     10  C   UNL     1      -0.690  -1.293   0.000  0.00  0.00    +0.062 C 
ATOM     11  C   UNL     1      -1.572  -0.795   0.000  0.00  0.00    +0.011 C 
ATOM     12  C   UNL     1      -2.351  -1.293   0.000  0.00  0.00    +0.044 C 
ATOM     13  C   UNL     1      -2.351  -2.251   0.000  0.00  0.00    +0.171 C 
ATOM     14  O   UNL     1      -0.690  -3.523   0.000  0.00  0.00    -0.225 OA
ATOM     15  C   UNL     1      -1.572  -2.706   0.000  0.00  0.00    +0.074 C 
ATOM     16  C   UNL     1       0.143  -0.795   0.000  0.00  0.00    +0.019 C 
ATOM     17  C   UNL     1       0.143   0.179   0.000  0.00  0.00    -0.004 C 
ATOM     18  C   UNL     1       0.988   0.655   0.000  0.00  0.00    +0.002 C 
ATOM     19  C   UNL     1       1.832   0.179   0.000  0.00  0.00    +0.029 C 
ATOM     20  C   UNL     1       1.832   1.125   0.000  0.00  0.00    +0.003 C 
ENDROOT
BRANCH   5  21
ATOM     21  C   UNL     1       3.049   1.461   0.000  0.00  0.00    +0.005 C 
ATOM     22  C   UNL     1       4.077   1.802   0.000  0.00  0.00    +0.231 C 
ATOM     23  O   UNL     1       4.077   2.852   0.000  0.00  0.00    -0.441 OA
ATOM     24  C   UNL     1       3.049   3.176   0.000  0.00  0.00    +0.341 C 
ATOM     25  O   UNL     1       2.698   4.253   0.000  0.00  0.00    -0.245 OA
ATOM     26  C   UNL     1       2.438   2.278   0.000  0.00  0.00    +0.077 C 
ENDBRANCH   5  21
BRANCH  10  27
ATOM     27  C   UNL     1      -0.663   0.022   0.000  0.00  0.00    +0.120 C 
ATOM     28  N   UNL     1      -1.561   0.384   0.000  0.00  0.00    -0.032 NA
ATOM     29  O   UNL     1      -1.572   1.369   0.000  0.00  0.00    -0.143 OA
ENDBRANCH  10  27
BRANCH  13  30
ATOM     30  O   UNL     1      -3.222  -2.760   0.000  0.00  0.00    -0.452 OA
BRANCH  30  31
ATOM     31  C   UNL     1      -3.222  -3.744   0.000  0.00  0.00    +0.317 C 
ATOM     32  C   UNL     1      -2.378  -4.237   0.000  0.00  0.00    +0.121 C 
ATOM     33  O   UNL     1      -4.077  -4.253   0.000  0.00  0.00    -0.250 OA
ENDBRANCH  30  31
ENDBRANCH  13  30
TORSDOF 4
ENDMDL
MODEL       59
REMARK  Name = 3,8-bis(acetyloxy)-6-oxo-6H-[1]benzofuro[3,2-c]chromen-9-yl acetate
REMARK  6 active torsions:
REMARK  status: ('A' for Active; 'I' for Inactive)
REMARK    1  A    between atoms: C_11  and  O_15
REMARK    2  A    between atoms: C_12  and  O_16
REMARK    3  A    between atoms: O_15  and  C_18
REMARK    4  A    between atoms: O_16  and  C_19
REMARK    5  A    between atoms: C_21  and  O_23
REMARK    6  A    between atoms: C_22  and  O_23
REMARK                            x       y       z     vdW  Elec       q    Type
REMARK                         _______ _______ _______ _____ _____    ______ ____
ROOT
ATOM      1  C   UNL     1       0.672   1.199   0.000  0.00  0.00    +0.114 A 
ATOM      2  C   UNL     1       1.387   0.502   0.000  0.00  0.00    +0.047 A 
ATOM      3  C   UNL     1       2.396   0.578   0.000  0.00  0.00    +0.044 A 
ATOM      4  C   UNL     1       2.977  -0.248   0.000  0.00  0.00    +0.183 A 
ATOM      5  C   UNL     1       2.525  -1.159   0.000  0.00  0.00    +0.186 A 
ATOM      6  C   UNL     1       1.507  -1.230   0.000  0.00  0.00    +0.078 A 
ATOM      7  C   UNL     1       0.958  -0.373   0.000  0.00  0.00    +0.149 A 
ATOM      8  O   UNL     1       0.015  -0.301   0.000  0.00  0.00    -0.453 OA
ATOM      9  C   UNL     1       0.672   2.208   0.000  0.00  0.00    +0.349 A 
ATOM     10  O   UNL     1       1.530   2.713   0.000  0.00  0.00    -0.244 OA
ATOM     11  O   UNL     1      -0.199   2.700   0.000  0.00  0.00    -0.421 OA
ATOM     12  C   UNL     1      -1.065   2.199   0.000  0.00  0.00    +0.155 A 
ATOM     13  C   UNL     1      -1.065   1.199   0.000  0.00  0.00    +0.070 A 
ATOM     14  C   UNL     1      -1.936   0.699   0.000  0.00  0.00    +0.009 A 
ATOM     15  C   UNL     1      -2.802   1.199   0.000  0.00  0.00    +0.038 A 
ATOM     16  C   UNL     1      -2.802   2.199   0.000  0.00  0.00    +0.151 A 
ATOM     17  C   UNL     1      -1.936   2.700   0.000  0.00  0.00    +0.075 A 
ATOM     18  C   UNL     1      -0.199   0.708   0.000  0.00  0.00    +0.154 A 
ENDROOT
BRANCH   4  19
ATOM     19  O   UNL     1       3.959  -0.172   0.000  0.00  0.00    -0.421 OA
BRANCH  19  20
ATOM     20  C   UNL     1       4.388   0.717   0.000  0.00  0.00    +0.322 C 
ATOM     21  C   UNL     1       5.343   0.770   0.000  0.00  0.00    +0.122 C 
ATOM     22  O   UNL     1       3.905   1.650   0.000  0.00  0.00    -0.250 OA
ENDBRANCH  19  20
ENDBRANCH   4  19
BRANCH   5  23
ATOM     23  O   UNL     1       3.092  -1.981   0.000  0.00  0.00    -0.421 OA
BRANCH  23  24
ATOM     24  C   UNL     1       4.102  -1.909   0.000  0.00  0.00    +0.322 C 
ATOM     25  C   UNL     1       4.602  -2.713   0.000  0.00  0.00    +0.122 C 
ATOM     26  O   UNL     1       4.655  -1.016   0.000  0.00  0.00    -0.250 OA
ENDBRANCH  23  24
ENDBRANCH   5  23
BRANCH  16  27
ATOM     27  O   UNL     1      -3.669   2.700   0.000  0.00  0.00    -0.424 OA
BRANCH  27  28
ATOM     28  C   UNL     1      -4.539   2.208   0.000  0.00  0.00    +0.322 C 
ATOM     29  C   UNL     1      -5.343   2.713   0.000  0.00  0.00    +0.122 C 
ATOM     30  O   UNL     1      -4.539   1.181   0.000  0.00  0.00    -0.250 OA
ENDBRANCH  27  28
ENDBRANCH  16  27
TORSDOF 6
ENDMDL
MODEL       60
REMARK  Name = 6'-ethoxy-6',9a,11a-trimethyl-2,3,3a,3b,4,5,7,9a,9b,10,11,11a-dodecahydrospiro[cyclopenta[a]phenanthrene-1,2'-[1,5]dioxane]-3',7,10-trione
REMARK  2 active torsions:
REMARK  status: ('A' for Active; 'I' for Inactive)
REMARK    1  A    between atoms: C_11  and  O_27
REMARK    2  A    between atoms: O_27  and  C_30
REMARK                            x       y       z     vdW  Elec       q    Type
REMARK                         _______ _______ _______ _____ _____    ______ ____
ROOT
ATOM      1  C   UNL     1       1.064  -0.189   0.000  0.00  0.00    +0.036 C 
ATOM      2  C   UNL     1       1.049   0.515   0.000  0.00  0.00    +0.003 C 
ATOM      3  C   UNL     1       0.168   0.334   0.000  0.00  0.00    +0.067 C 
ATOM      4  C   UNL     1      -0.712  -0.189   0.000  0.00  0.00    +0.151 C 
ATOM      5  O   UNL     1      -1.592   0.309   0.000  0.00  0.00    -0.296 OA
ATOM      6  C   UNL     1      -0.712  -1.200   0.000  0.00  0.00    +0.065 C 
ATOM      7  C   UNL     1       0.204  -1.698   0.000  0.00  0.00    +0.008 C 
ATOM      8  C   UNL     1       0.204  -2.724   0.000  0.00  0.00    +0.005 C 
ATOM      9  C   UNL     1      -0.712  -3.227   0.000  0.00  0.00    +0.022 C 
ATOM     10  C   UNL     1      -1.582  -2.724   0.000  0.00  0.00    -0.038 C 
ATOM     11  C   UNL     1      -2.462  -3.227   0.000  0.00  0.00    +0.034 C 
ATOM     12  C   UNL     1      -3.357  -2.724   0.000  0.00  0.00    +0.195 C 
ATOM     13  O   UNL     1      -4.237  -3.252   0.000  0.00  0.00    -0.287 OA
ATOM     14  C   UNL     1      -3.357  -1.698   0.000  0.00  0.00    +0.038 C 
ATOM     15  C   UNL     1      -2.462  -1.200   0.000  0.00  0.00    -0.019 C 
ATOM     16  C   UNL     1      -1.582  -1.698   0.000  0.00  0.00    +0.040 C 
ATOM     17  C   UNL     1      -1.582  -0.682   0.000  0.00  0.00    +0.009 C 
ATOM     18  C   UNL     1       1.064  -1.200   0.000  0.00  0.00    +0.004 C 
ATOM     19  C   UNL     1       2.030  -1.501   0.000  0.00  0.00    +0.003 C 
ATOM     20  C   UNL     1       2.608  -0.656   0.000  0.00  0.00    +0.035 C 
ATOM     21  C   UNL     1       2.055   0.138   0.000  0.00  0.00    +0.151 C 
ATOM     22  C   UNL     1       1.677   1.104   0.000  0.00  0.00    +0.205 C 
ATOM     23  O   UNL     1       0.702   1.250   0.000  0.00  0.00    -0.291 OA
ATOM     24  C   UNL     1       2.296   1.863   0.000  0.00  0.00    +0.213 C 
ATOM     25  O   UNL     1       3.322   1.743   0.000  0.00  0.00    -0.304 OA
ATOM     26  C   UNL     1       3.669   0.777   0.000  0.00  0.00    +0.297 C 
ATOM     27  C   UNL     1       3.996  -0.088   0.000  0.00  0.00    +0.096 C 
ATOM     28  O   UNL     1       3.020  -0.018   0.000  0.00  0.00    -0.310 OA
ENDROOT
BRANCH  26  29
ATOM     29  O   UNL     1       4.152   1.526   0.000  0.00  0.00    -0.313 OA
BRANCH  29  30
ATOM     30  C   UNL     1       3.704   2.422   0.000  0.00  0.00    +0.147 C 
ATOM     31  C   UNL     1       4.237   3.252   0.000  0.00  0.00    +0.035 C 
ENDBRANCH  29  30
ENDBRANCH  26  29
TORSDOF 2
ENDMDL
MODEL       61
REMARK  Name = 5,9-DIMETHYL-14,17-DIOXO-20-(PROPAN-2-YL)PENTACYCLO[10.6.2.0^(1,10).0^(4,9).0^(13,18)]ICOS-19-ENE-5-CARBOXYLIC ACID
REMARK  2 active torsions:
REMARK  status: ('A' for Active; 'I' for Inactive)
REMARK    1  A    between atoms: C_5  and  C_18
REMARK    2  A    between atoms: C_10  and  C_12
REMARK                            x       y       z     vdW  Elec       q    Type
REMARK                         _______ _______ _______ _____ _____    ______ ____
ROOT
ATOM      1  C   UNL     1       0.398  -0.694   0.000  0.00  0.00    +0.021 C 
ATOM      2  C   UNL     1       0.398  -1.639   0.000  0.00  0.00    +0.004 C 
ATOM      3  C   UNL     1      -0.420  -2.121   0.000  0.00  0.00    +0.001 C 
ATOM      4  C   UNL     1      -1.239  -1.639   0.000  0.00  0.00    +0.010 C 
ATOM      5  C   UNL     1      -1.239  -0.694   0.000  0.00  0.00    +0.001 C 
ATOM      6  C   UNL     1      -1.252   0.199   0.000  0.00  0.00    +0.000 C 
ATOM      7  C   UNL     1      -2.040  -0.221   0.000  0.00  0.00    +0.000 C 
ATOM      8  C   UNL     1      -2.867  -0.694   0.000  0.00  0.00    +0.001 C 
ATOM      9  C   UNL     1      -2.867  -1.639   0.000  0.00  0.00    +0.011 C 
ATOM     10  C   UNL     1      -2.040  -2.121   0.000  0.00  0.00    +0.094 C 
ATOM     11  C   UNL     1      -2.648  -2.743   0.000  0.00  0.00    +0.011 C 
ATOM     12  C   UNL     1      -0.674   1.806   0.000  0.00  0.00    -0.035 C 
ATOM     13  C   UNL     1       0.735   2.143   0.000  0.00  0.00    -0.049 C 
ATOM     14  C   UNL     1       0.398   1.206   0.000  0.00  0.00    +0.021 C 
ATOM     15  C   UNL     1      -0.420   0.733   0.000  0.00  0.00    +0.004 C 
ATOM     16  C   UNL     1       1.230   0.733   0.000  0.00  0.00    +0.079 C 
ATOM     17  C   UNL     1       2.040   1.206   0.000  0.00  0.00    +0.147 C 
ATOM     18  C   UNL     1       2.867   0.733   0.000  0.00  0.00    +0.072 C 
ATOM     19  C   UNL     1       2.867  -0.221   0.000  0.00  0.00    +0.072 C 
ATOM     20  C   UNL     1       2.040  -0.694   0.000  0.00  0.00    +0.147 C 
ATOM     21  O   UNL     1       2.040  -1.639   0.000  0.00  0.00    -0.296 OA
ATOM     22  O   UNL     1       2.040   2.152   0.000  0.00  0.00    -0.296 OA
ATOM     23  C   UNL     1       1.230  -0.221   0.000  0.00  0.00    +0.079 C 
ATOM     24  C   UNL     1      -0.420  -0.221   0.000  0.00  0.00    +0.004 C 
ENDROOT
BRANCH  10  25
ATOM     25  C   UNL     1      -1.532  -2.773   0.000  0.00  0.00    +0.364 C 
ATOM     26  O   UNL     1      -0.525  -2.773   0.000  0.00  0.00    -0.246 OA
ATOM     27  O   UNL     1      -2.071  -3.605   0.000  0.00  0.00    -0.246 OA
ENDBRANCH  10  25
BRANCH  13  28
ATOM     28  C   UNL     1       0.954   2.940   0.000  0.00  0.00    +0.018 C 
ATOM     29  C   UNL     1       0.284   3.605   0.000  0.00  0.00    +0.004 C 
ATOM     30  C   UNL     1       1.861   3.080   0.000  0.00  0.00    +0.004 C 
ENDBRANCH  13  28
TORSDOF 2
ENDMDL
MODEL       62
REMARK  Name = 4-{4,7,11-trihydroxy-9a,11a-dimethyl-hexadecahydro-1H-cyclopenta[a]phenanthren-1-yl}pentanoic acid
REMARK  4 active torsions:
REMARK  status: ('A' for Active; 'I' for Inactive)
REMARK    1  A    between atoms: C_10  and  C_18
REMARK    2  A    between atoms: C_15  and  C_22
REMARK    3  A    between atoms: C_18  and  C_19
REMARK    4  A    between atoms: C_19  and  C_22
REMARK                            x       y       z     vdW  Elec       q    Type
REMARK                         _______ _______ _______ _____ _____    ______ ____
ROOT
ATOM      1  C   UNL     1       0.581  -0.182   0.000  0.00  0.00    +0.024 C 
ATOM      2  C   UNL     1       0.594   0.792   0.000  0.00  0.00    +0.002 C 
ATOM      3  C   UNL     1       1.547   0.111   0.000  0.00  0.00    +0.011 C 
ATOM      4  C   UNL     1       2.170  -0.684   0.000  0.00  0.00    -0.004 C 
ATOM      5  C   UNL     1       1.568  -1.537   0.000  0.00  0.00    -0.000 C 
ATOM      6  C   UNL     1      -0.309   0.332   0.000  0.00  0.00    +0.151 C 
ATOM      7  O   UNL     1      -0.309   1.336   0.000  0.00  0.00    -0.223 OA
ATOM      8  C   UNL     1      -1.213  -0.182   0.000  0.00  0.00    +0.029 C 
ATOM      9  C   UNL     1      -1.213  -1.223   0.000  0.00  0.00    +0.014 C 
ATOM     10  C   UNL     1      -0.309  -1.746   0.000  0.00  0.00    +0.040 C 
ATOM     11  C   UNL     1      -0.309  -2.791   0.000  0.00  0.00    +0.148 C 
ATOM     12  O   UNL     1       0.573  -3.301   0.000  0.00  0.00    -0.223 OA
ATOM     13  C   UNL     1      -1.213  -3.310   0.000  0.00  0.00    +0.029 C 
ATOM     14  C   UNL     1      -2.107  -2.791   0.000  0.00  0.00    +0.018 C 
ATOM     15  C   UNL     1      -3.011  -3.310   0.000  0.00  0.00    +0.029 C 
ATOM     16  C   UNL     1      -3.901  -2.791   0.000  0.00  0.00    +0.152 C 
ATOM     17  O   UNL     1      -4.796  -3.301   0.000  0.00  0.00    -0.223 OA
ATOM     18  C   UNL     1      -3.901  -1.746   0.000  0.00  0.00    +0.033 C 
ATOM     19  C   UNL     1      -3.011  -1.223   0.000  0.00  0.00    +0.002 C 
ATOM     20  C   UNL     1      -2.107  -1.746   0.000  0.00  0.00    -0.007 C 
ATOM     21  C   UNL     1      -2.107  -0.843   0.000  0.00  0.00    -0.001 C 
ATOM     22  C   UNL     1       0.581  -1.236   0.000  0.00  0.00    +0.000 C 
ENDROOT
BRANCH   3  23
ATOM     23  C   UNL     1       1.857   1.093   0.000  0.00  0.00    +0.010 C 
ATOM     24  C   UNL     1       2.179   1.767   0.000  0.00  0.00    -0.005 C 
BRANCH  23  25
ATOM     25  C   UNL     1       2.873   1.315   0.000  0.00  0.00    +0.008 C 
BRANCH  25  26
ATOM     26  C   UNL     1       3.182   2.310   0.000  0.00  0.00    +0.114 C 
BRANCH  26  27
ATOM     27  C   UNL     1       4.165   2.549   0.000  0.00  0.00    +0.365 C 
ATOM     28  O   UNL     1       4.796   1.788   0.000  0.00  0.00    -0.246 OA
ATOM     29  O   UNL     1       4.445   3.544   0.000  0.00  0.00    -0.246 OA
ENDBRANCH  26  27
ENDBRANCH  25  26
ENDBRANCH  23  25
ENDBRANCH   3  23
TORSDOF 4
ENDMDL
MODEL       63
REMARK  Name = 11-ETHYL-8,9,16-TRIHYDROXY-6-METHOXY-13-(METHOXYMETHYL)-11-AZAHEXACYCLO[7.7.2.1^(2,5).0^(1,10).0^(3,8).0^(13,17)]NONADECAN-4-YL ACETATE
REMARK  6 active torsions:
REMARK  status: ('A' for Active; 'I' for Inactive)
REMARK    1  A    between atoms: N_8  and  C_25
REMARK    2  A    between atoms: C_9  and  O_17
REMARK    3  A    between atoms: C_10  and  C_26
REMARK    4  A    between atoms: C_16  and  O_27
REMARK    5  A    between atoms: O_17  and  C_19
REMARK    6  A    between atoms: C_26  and  O_29
REMARK                            x       y       z     vdW  Elec       q    Type
REMARK                         _______ _______ _______ _____ _____    ______ ____
ROOT
ATOM      1  C   UNL     1       0.023  -0.509   0.000  0.00  0.00    +0.165 C 
ATOM      2  O   UNL     1       0.019  -1.455   0.000  0.00  0.00    -0.222 OA
ATOM      3  C   UNL     1      -0.822  -0.648   0.000  0.00  0.00    +0.034 C 
ATOM      4  C   UNL     1      -1.354  -0.135   0.000  0.00  0.00    +0.010 C 
ATOM      5  C   UNL     1      -1.354   0.752   0.000  0.00  0.00    +0.044 C 
ATOM      6  C   UNL     1      -2.111   1.196   0.000  0.00  0.00    +0.153 C 
ATOM      7  O   UNL     1      -2.119   2.076   0.000  0.00  0.00    -0.223 OA
ATOM      8  C   UNL     1      -2.871   0.752   0.000  0.00  0.00    +0.033 C 
ATOM      9  C   UNL     1      -2.871  -0.139   0.000  0.00  0.00    +0.006 C 
ATOM     10  C   UNL     1      -0.799   1.273   0.000  0.00  0.00    +0.010 C 
ATOM     11  C   UNL     1       0.054   1.123   0.000  0.00  0.00    +0.071 C 
ATOM     12  C   UNL     1       0.463   1.875   0.000  0.00  0.00    +0.173 C 
ATOM     13  C   UNL     1      -0.131   2.500   0.000  0.00  0.00    +0.067 C 
ATOM     14  C   UNL     1       1.246   2.215   0.000  0.00  0.00    +0.121 C 
ATOM     15  C   UNL     1       1.246   1.053   0.000  0.00  0.00    +0.063 C 
ATOM     16  C   UNL     1      -0.907   2.130   0.000  0.00  0.00    +0.006 C 
ATOM     17  C   UNL     1      -2.111  -0.575   0.000  0.00  0.00    +0.042 C 
ATOM     18  C   UNL     1      -2.882  -1.007   0.000  0.00  0.00    +0.074 C 
ATOM     19  N   UNL     1      -2.269   0.243   0.000  0.00  0.00    -0.272 NA
ATOM     20  C   UNL     1      -1.354   1.632   0.000  0.00  0.00    +0.090 C 
ATOM     21  C   UNL     1       0.436   0.278   0.000  0.00  0.00    +0.159 C 
ATOM     22  O   UNL     1       0.876  -0.482   0.000  0.00  0.00    -0.223 OA
ENDROOT
BRANCH  14  23
ATOM     23  O   UNL     1       1.933   2.778   0.000  0.00  0.00    -0.353 OA
ATOM     24  C   UNL     1       2.755   2.470   0.000  0.00  0.00    +0.174 C 
ENDBRANCH  14  23
BRANCH  19  25
ATOM     25  C   UNL     1      -3.152   0.243   0.000  0.00  0.00    +0.072 C 
ATOM     26  C   UNL     1      -3.588   1.019   0.000  0.00  0.00    +0.019 C 
ENDBRANCH  19  25
BRANCH  12  27
ATOM     27  O   UNL     1       1.852   1.424   0.000  0.00  0.00    -0.452 OA
BRANCH  27  28
ATOM     28  C   UNL     1       2.882   0.394   0.000  0.00  0.00    +0.317 C 
ATOM     29  C   UNL     1       3.588   0.594   0.000  0.00  0.00    +0.121 C 
ATOM     30  O   UNL     1       2.686  -0.197   0.000  0.00  0.00    -0.250 OA
ENDBRANCH  27  28
ENDBRANCH  12  27
BRANCH  17  31
ATOM     31  C   UNL     1      -2.119  -1.459   0.000  0.00  0.00    +0.143 C 
BRANCH  31  32
ATOM     32  O   UNL     1      -2.894  -1.894   0.000  0.00  0.00    -0.351 OA
ATOM     33  C   UNL     1      -2.898  -2.778   0.000  0.00  0.00    +0.174 C 
ENDBRANCH  31  32
ENDBRANCH  17  31
TORSDOF 6
ENDMDL
MODEL       64
REMARK  Name = 2-{16,17-DIMETHOXY-12-OXO-2,7,20-TRIOXAPENTACYCLO[11.8.0.0^(3,11).0^(4,8).0^(14,19)]HENICOSA-3(11),4(8),9,14,16,18-HEXAEN-6-YL}PROP-2-EN-1-YL ACETATE
REMARK  6 active torsions:
REMARK  status: ('A' for Active; 'I' for Inactive)
REMARK    1  A    between atoms: C_12  and  C_15
REMARK    2  A    between atoms: C_15  and  C_25
REMARK    3  A    between atoms: C_19  and  O_29
REMARK    4  A    between atoms: C_20  and  O_30
REMARK    5  A    between atoms: C_23  and  O_26
REMARK    6  A    between atoms: C_25  and  O_26
REMARK                            x       y       z     vdW  Elec       q    Type
REMARK                         _______ _______ _______ _____ _____    ______ ____
ROOT
ATOM      1  C   UNL     1      -0.375   0.019   0.000  0.00  0.00    +0.140 A 
ATOM      2  O   UNL     1      -0.371   1.006   0.000  0.00  0.00    -0.482 OA
ATOM      3  C   UNL     1      -1.221   1.507   0.000  0.00  0.00    +0.240 C 
ATOM      4  C   UNL     1      -1.221   2.482   0.000  0.00  0.00    +0.241 C 
ATOM      5  O   UNL     1      -2.076   2.982   0.000  0.00  0.00    -0.472 OA
ATOM      6  C   UNL     1      -2.922   2.482   0.000  0.00  0.00    +0.138 A 
ATOM      7  C   UNL     1      -2.922   1.507   0.000  0.00  0.00    +0.021 A 
ATOM      8  C   UNL     1      -3.772   1.019   0.000  0.00  0.00    +0.039 A 
ATOM      9  C   UNL     1      -4.614   1.507   0.000  0.00  0.00    +0.172 A 
ATOM     10  C   UNL     1      -4.614   2.482   0.000  0.00  0.00    +0.175 A 
ATOM     11  C   UNL     1      -3.772   2.970   0.000  0.00  0.00    +0.077 A 
ATOM     12  C   UNL     1      -2.076   1.019   0.000  0.00  0.00    +0.139 C 
ATOM     13  C   UNL     1      -2.096   0.044   0.000  0.00  0.00    +0.178 C 
ATOM     14  O   UNL     1      -2.939  -0.444   0.000  0.00  0.00    -0.291 OA
ATOM     15  C   UNL     1       0.454  -0.482   0.000  0.00  0.00    +0.050 A 
ATOM     16  C   UNL     1       2.143  -0.507   0.000  0.00  0.00    +0.080 C 
ATOM     17  C   UNL     1       2.143  -1.482   0.000  0.00  0.00    +0.192 C 
ATOM     18  O   UNL     1       1.288  -1.965   0.000  0.00  0.00    -0.475 OA
ATOM     19  C   UNL     1       0.442  -1.457   0.000  0.00  0.00    +0.138 A 
ATOM     20  C   UNL     1      -0.400  -1.953   0.000  0.00  0.00    +0.037 A 
ATOM     21  C   UNL     1      -1.250  -1.452   0.000  0.00  0.00    +0.009 A 
ATOM     22  C   UNL     1      -1.238  -0.465   0.000  0.00  0.00    +0.069 A 
ENDROOT
BRANCH  10  23
ATOM     23  O   UNL     1      -5.460   2.970   0.000  0.00  0.00    -0.468 OA
ATOM     24  C   UNL     1      -6.419   2.970   0.000  0.00  0.00    +0.253 C 
ENDBRANCH  10  23
BRANCH   9  25
ATOM     25  O   UNL     1      -5.460   1.019   0.000  0.00  0.00    -0.468 OA
ATOM     26  C   UNL     1      -6.431   1.019   0.000  0.00  0.00    +0.253 C 
ENDBRANCH   9  25
BRANCH  17  27
ATOM     27  C   UNL     1       2.980  -1.982   0.000  0.00  0.00    +0.039 C 
ATOM     28  C   UNL     1       2.968  -2.982   0.000  0.00  0.00    -0.002 C 
BRANCH  27  29
ATOM     29  C   UNL     1       3.856  -1.494   0.000  0.00  0.00    +0.234 C 
BRANCH  29  30
ATOM     30  O   UNL     1       4.714  -1.995   0.000  0.00  0.00    -0.444 OA
BRANCH  30  31
ATOM     31  C   UNL     1       5.569  -1.482   0.000  0.00  0.00    +0.318 C 
ATOM     32  C   UNL     1       6.431  -1.982   0.000  0.00  0.00    +0.121 C 
ATOM     33  O   UNL     1       5.569  -0.490   0.000  0.00  0.00    -0.250 OA
ENDBRANCH  30  31
ENDBRANCH  29  30
ENDBRANCH  27  29
ENDBRANCH  17  27
TORSDOF 6
ENDMDL
MODEL       65
REMARK  Name = 9-(2-{[(8R,9S)-10-formyl-5,14-dihydroxy-13-methyl-17-(5-oxo-2,5-dihydro-3-furanyl)hexadecahydro-1H-cyclopenta[a]phenanthren-3-yl]oxy}-2-oxoethyl)-7-[(3-hydroxy-2-phenylpropanoyl)oxy]-9-methyl-3-oxa-9- azoniatricyclo[3.3.1.0~2,4~]nonane
REMARK  11 active torsions:
REMARK  status: ('A' for Active; 'I' for Inactive)
REMARK    1  A    between atoms: N_1  and  C_18
REMARK    2  A    between atoms: C_8  and  C_35
REMARK    3  A    between atoms: C_13  and  C_15
REMARK    4  A    between atoms: C_14  and  C_16
REMARK    5  A    between atoms: C_14  and  O_27
REMARK    6  A    between atoms: C_16  and  C_39
REMARK    7  A    between atoms: C_16  and  C_48
REMARK    8  A    between atoms: C_18  and  C_24
REMARK    9  A    between atoms: C_24  and  O_37
REMARK   10  A    between atoms: C_25  and  O_27
REMARK   11  A    between atoms: O_37  and  C_38
REMARK                            x       y       z     vdW  Elec       q    Type
REMARK                         _______ _______ _______ _____ _____    ______ ____
ROOT
ATOM      1  C   UNL     1       0.655  -3.025   0.000  0.00  0.00    +0.172 C 
ATOM      2  C   UNL     1       0.655  -2.148   0.000  0.00  0.00    +0.044 C 
ATOM      3  C   UNL     1       1.362  -1.715   0.000  0.00  0.00    +0.013 C 
ATOM      4  C   UNL     1       2.141  -2.148   0.000  0.00  0.00    +0.081 C 
ATOM      5  C   UNL     1       2.141  -3.025   0.000  0.00  0.00    +0.136 C 
ATOM      6  O   UNL     1       2.141  -4.165   0.000  0.00  0.00    -0.225 OA
ATOM      7  C   UNL     1       2.920  -3.448   0.000  0.00  0.00    +0.031 C 
ATOM      8  C   UNL     1       3.637  -3.025   0.000  0.00  0.00    +0.001 C 
ATOM      9  C   UNL     1       3.637  -2.148   0.000  0.00  0.00    +0.038 C 
ATOM     10  C   UNL     1       4.431  -1.715   0.000  0.00  0.00    +0.123 C 
ATOM     11  C   UNL     1       4.431  -0.838   0.000  0.00  0.00    +0.029 C 
ATOM     12  C   UNL     1       4.431   0.276   0.000  0.00  0.00    +0.003 C 
ATOM     13  C   UNL     1       5.261  -0.591   0.000  0.00  0.00    +0.024 C 
ATOM     14  C   UNL     1       5.741  -1.272   0.000  0.00  0.00    +0.007 C 
ATOM     15  C   UNL     1       3.637  -0.415   0.000  0.00  0.00    +0.002 C 
ATOM     16  C   UNL     1       2.920  -0.838   0.000  0.00  0.00    -0.004 C 
ATOM     17  O   UNL     1       4.431  -2.778   0.000  0.00  0.00    -0.226 OA
ATOM     18  C   UNL     1       5.261  -1.963   0.000  0.00  0.00    +0.030 C 
ATOM     19  C   UNL     1       2.920  -1.715   0.000  0.00  0.00    +0.021 C 
ATOM     20  C   UNL     1       1.362  -3.448   0.000  0.00  0.00    +0.074 C 
ENDROOT
BRANCH  13  21
ATOM     21  C   UNL     1       5.535   0.255   0.000  0.00  0.00    +0.005 C 
ATOM     22  C   UNL     1       6.350   0.539   0.000  0.00  0.00    +0.231 C 
ATOM     23  O   UNL     1       6.324   1.406   0.000  0.00  0.00    -0.441 OA
ATOM     24  C   UNL     1       5.494   1.663   0.000  0.00  0.00    +0.341 C 
ATOM     25  O   UNL     1       5.184   2.494   0.000  0.00  0.00    -0.245 OA
ATOM     26  C   UNL     1       4.988   0.910   0.000  0.00  0.00    +0.077 C 
ENDBRANCH  13  21
BRANCH   4  27
ATOM     27  C   UNL     1       2.141  -1.272   0.000  0.00  0.00    +0.209 C 
ATOM     28  O   UNL     1       1.362  -0.838   0.000  0.00  0.00    -0.288 OA
ENDBRANCH   4  27
BRANCH   1  29
ATOM     29  O   UNL     1      -0.139  -3.474   0.000  0.00  0.00    -0.448 OA
BRANCH  29  30
ATOM     30  C   UNL     1      -0.990  -2.989   0.000  0.00  0.00    +0.374 C 
ATOM     31  O   UNL     1      -0.990  -2.014   0.000  0.00  0.00    -0.243 OA
BRANCH  30  32
ATOM     32  C   UNL     1      -1.893  -3.484   0.000  0.00  0.00    +0.219 C 
BRANCH  32  33
ATOM     33  N   UNL     1      -3.095  -2.644   0.000  0.00  0.00    +0.306 N 
ATOM     34  C   UNL     1      -2.079  -1.952   0.000  0.00  0.00    +0.171 C 
ATOM     35  C   UNL     1      -4.297  -2.014   0.000  0.00  0.00    +0.093 C 
ATOM     36  C   UNL     1      -4.297  -0.467   0.000  0.00  0.00    +0.101 C 
ATOM     37  C   UNL     1      -3.874  -0.467   0.000  0.00  0.00    +0.180 C 
ATOM     38  C   UNL     1      -3.564  -1.370   0.000  0.00  0.00    +0.101 C 
ATOM     39  C   UNL     1      -5.535  -2.644   0.000  0.00  0.00    +0.197 C 
ATOM     40  C   UNL     1      -5.050  -3.583   0.000  0.00  0.00    +0.197 C 
ATOM     41  O   UNL     1      -6.169  -4.078   0.000  0.00  0.00    -0.342 OA
ATOM     42  C   UNL     1      -3.564  -3.583   0.000  0.00  0.00    +0.093 C 
BRANCH  37  43
ATOM     43  O   UNL     1      -3.244   0.317   0.000  0.00  0.00    -0.452 OA
BRANCH  43  44
ATOM     44  C   UNL     1      -3.616   1.230   0.000  0.00  0.00    +0.323 C 
ATOM     45  O   UNL     1      -2.997   2.009   0.000  0.00  0.00    -0.250 OA
BRANCH  44  46
ATOM     46  C   UNL     1      -4.580   1.370   0.000  0.00  0.00    +0.154 C 
BRANCH  46  47
ATOM     47  C   UNL     1      -4.967   2.298   0.000  0.00  0.00    -0.009 A 
ATOM     48  C   UNL     1      -5.968   2.422   0.000  0.00  0.00    -0.004 A 
ATOM     49  C   UNL     1      -6.350   3.361   0.000  0.00  0.00    -0.000 A 
ATOM     50  C   UNL     1      -5.721   4.165   0.000  0.00  0.00    -0.000 A 
ATOM     51  C   UNL     1      -4.720   4.042   0.000  0.00  0.00    -0.000 A 
ATOM     52  C   UNL     1      -4.348   3.103   0.000  0.00  0.00    -0.004 A 
ENDBRANCH  46  47
BRANCH  46  53
ATOM     53  C   UNL     1      -5.189   0.611   0.000  0.00  0.00    +0.198 C 
ATOM     54  O   UNL     1      -6.169   0.735   0.000  0.00  0.00    -0.219 OA
ENDBRANCH  46  53
ENDBRANCH  44  46
ENDBRANCH  43  44
ENDBRANCH  37  43
ENDBRANCH  32  33
ENDBRANCH  30  32
ENDBRANCH  29  30
ENDBRANCH   1  29
TORSDOF 11
ENDMDL
MODEL       66
REMARK  Name = 6-methoxy-7-[(3-methylbut-2-en-1-yl)oxy]-2-oxo-2H-chromen-8-yl acetate
REMARK  6 active torsions:
REMARK  status: ('A' for Active; 'I' for Inactive)
REMARK    1  A    between atoms: C_1  and  O_8
REMARK    2  A    between atoms: C_3  and  O_17
REMARK    3  A    between atoms: C_6  and  O_18
REMARK    4  A    between atoms: O_8  and  C_12
REMARK    5  A    between atoms: C_16  and  C_19
REMARK    6  A    between atoms: O_17  and  C_19
REMARK                            x       y       z     vdW  Elec       q    Type
REMARK                         _______ _______ _______ _____ _____    ______ ____
ROOT
ATOM      1  C   UNL     1       0.008  -0.004   0.000  0.00  0.00    +0.219 A 
ATOM      2  C   UNL     1      -0.854   0.504   0.000  0.00  0.00    +0.210 A 
ATOM      3  C   UNL     1      -0.854   1.503   0.000  0.00  0.00    +0.176 A 
ATOM      4  C   UNL     1       0.008   2.003   0.000  0.00  0.00    +0.043 A 
ATOM      5  C   UNL     1       0.879   1.503   0.000  0.00  0.00    +0.041 A 
ATOM      6  C   UNL     1       1.745   2.003   0.000  0.00  0.00    +0.010 A 
ATOM      7  C   UNL     1       2.607   1.503   0.000  0.00  0.00    +0.082 A 
ATOM      8  C   UNL     1       2.607   0.504   0.000  0.00  0.00    +0.346 A 
ATOM      9  O   UNL     1       3.469  -0.004   0.000  0.00  0.00    -0.244 OA
ATOM     10  O   UNL     1       1.745  -0.004   0.000  0.00  0.00    -0.418 OA
ATOM     11  C   UNL     1       0.870   0.504   0.000  0.00  0.00    +0.186 A 
ENDROOT
BRANCH   3  12
ATOM     12  O   UNL     1      -1.716   2.003   0.000  0.00  0.00    -0.468 OA
ATOM     13  C   UNL     1      -1.728   3.002   0.000  0.00  0.00    +0.253 C 
ENDBRANCH   3  12
BRANCH   1  14
ATOM     14  O   UNL     1       0.017  -1.004   0.000  0.00  0.00    -0.418 OA
BRANCH  14  15
ATOM     15  C   UNL     1       0.879  -1.503   0.000  0.00  0.00    +0.322 C 
ATOM     16  C   UNL     1       1.745  -1.004   0.000  0.00  0.00    +0.122 C 
ATOM     17  O   UNL     1       0.879  -2.502   0.000  0.00  0.00    -0.250 OA
ENDBRANCH  14  15
ENDBRANCH   1  14
BRANCH   2  18
ATOM     18  O   UNL     1      -1.728  -0.004   0.000  0.00  0.00    -0.464 OA
BRANCH  18  19
ATOM     19  C   UNL     1      -1.728  -1.004   0.000  0.00  0.00    +0.231 C 
BRANCH  19  20
ATOM     20  C   UNL     1      -2.594  -1.503   0.000  0.00  0.00    +0.012 C 
ATOM     21  C   UNL     1      -2.603  -2.502   0.000  0.00  0.00    -0.044 C 
ATOM     22  C   UNL     1      -1.740  -3.002   0.000  0.00  0.00    +0.026 C 
ATOM     23  C   UNL     1      -3.469  -2.994   0.000  0.00  0.00    +0.026 C 
ENDBRANCH  19  20
ENDBRANCH  18  19
ENDBRANCH   2  18
TORSDOF 6
ENDMDL
MODEL       67
REMARK  Name = 2-(2-hydroxypropan-2-yl)-2H,3H,7H-furo[3,2-g]chromen-7-one
REMARK  1 active torsions:
REMARK  status: ('A' for Active; 'I' for Inactive)
REMARK    1  A    between atoms: C_6  and  C_14
REMARK                            x       y       z     vdW  Elec       q    Type
REMARK                         _______ _______ _______ _____ _____    ______ ____
ROOT
ATOM      1  O   UNL     1      -1.365  -0.793   0.000  0.00  0.00    -0.477 OA
ATOM      2  C   UNL     1      -1.929  -0.000   0.000  0.00  0.00    +0.198 C 
ATOM      3  C   UNL     1      -1.365   0.846   0.000  0.00  0.00    +0.075 C 
ATOM      4  C   UNL     1      -0.423   0.537   0.000  0.00  0.00    +0.016 A 
ATOM      5  C   UNL     1       0.450   1.022   0.000  0.00  0.00    +0.002 A 
ATOM      6  C   UNL     1       1.317   0.511   0.000  0.00  0.00    +0.035 A 
ATOM      7  C   UNL     1       2.185   1.022   0.000  0.00  0.00    +0.010 A 
ATOM      8  C   UNL     1       3.053   0.537   0.000  0.00  0.00    +0.082 A 
ATOM      9  C   UNL     1       3.053  -0.484   0.000  0.00  0.00    +0.346 A 
ATOM     10  O   UNL     1       3.920  -1.022   0.000  0.00  0.00    -0.244 OA
ATOM     11  O   UNL     1       2.185  -0.969   0.000  0.00  0.00    -0.421 OA
ATOM     12  C   UNL     1       1.317  -0.484   0.000  0.00  0.00    +0.152 A 
ATOM     13  C   UNL     1       0.450  -0.969   0.000  0.00  0.00    +0.074 A 
ATOM     14  C   UNL     1      -0.423  -0.484   0.000  0.00  0.00    +0.138 A 
ENDROOT
BRANCH   2  15
ATOM     15  C   UNL     1      -2.925  -0.000   0.000  0.00  0.00    +0.163 C 
ATOM     16  C   UNL     1      -2.925   0.995   0.000  0.00  0.00    +0.037 C 
ATOM     17  C   UNL     1      -3.920  -0.027   0.000  0.00  0.00    +0.037 C 
ATOM     18  O   UNL     1      -2.898  -0.995   0.000  0.00  0.00    -0.222 OA
ENDBRANCH   2  15
TORSDOF 1
ENDMDL
MODEL       68
REMARK  Name = 1'-acetyl-5',6'-dimethoxy-2',3',8',8a'-tetrahydro-1'H,4H-spiro[cyclohexa-2,5-diene-1,7'-cyclopenta[ij]isoquinolin]-4-one
REMARK  2 active torsions:
REMARK  status: ('A' for Active; 'I' for Inactive)
REMARK    1  A    between atoms: C_8  and  O_21
REMARK    2  A    between atoms: C_12  and  O_22
REMARK                            x       y       z     vdW  Elec       q    Type
REMARK                         _______ _______ _______ _____ _____    ______ ____
ROOT
ATOM      1  C   UNL     1      -0.538  -0.076   0.000  0.00  0.00    +0.061 C 
ATOM      2  C   UNL     1      -1.522  -0.275   0.000  0.00  0.00    -0.015 C 
ATOM      3  C   UNL     1      -1.812  -1.205   0.000  0.00  0.00    +0.038 C 
ATOM      4  C   UNL     1      -1.148  -1.930   0.000  0.00  0.00    +0.195 C 
ATOM      5  C   UNL     1      -0.187  -1.700   0.000  0.00  0.00    +0.038 C 
ATOM      6  O   UNL     1      -1.438  -2.885   0.000  0.00  0.00    -0.287 OA
ATOM      7  C   UNL     1       0.103  -0.800   0.000  0.00  0.00    -0.015 C 
ATOM      8  C   UNL     1       0.423  -0.190   0.000  0.00  0.00    +0.037 C 
ATOM      9  C   UNL     1       0.828   0.710   0.000  0.00  0.00    +0.098 C 
ATOM     10  C   UNL     1       0.072   1.374   0.000  0.00  0.00    -0.008 A 
ATOM     11  C   UNL     1       0.072   2.389   0.000  0.00  0.00    -0.020 A 
ATOM     12  C   UNL     1      -0.767   2.885   0.000  0.00  0.00    +0.036 A 
ATOM     13  C   UNL     1      -1.637   2.389   0.000  0.00  0.00    +0.172 A 
ATOM     14  C   UNL     1      -1.637   1.374   0.000  0.00  0.00    +0.169 A 
ATOM     15  C   UNL     1       0.912   2.885   0.000  0.00  0.00    +0.048 C 
ATOM     16  C   UNL     1       1.782   2.389   0.000  0.00  0.00    +0.098 C 
ATOM     17  N   UNL     1       1.752   1.030   0.000  0.00  0.00    -0.277 N 
ATOM     18  C   UNL     1       2.392   0.275   0.000  0.00  0.00    +0.226 C 
ATOM     19  C   UNL     1       3.347   0.450   0.000  0.00  0.00    +0.095 C 
ATOM     20  O   UNL     1       2.042  -0.655   0.000  0.00  0.00    -0.275 OA
ATOM     21  C   UNL     1      -0.767   0.885   0.000  0.00  0.00    +0.019 A 
ENDROOT
BRANCH  13  22
ATOM     22  O   UNL     1      -2.507   2.885   0.000  0.00  0.00    -0.468 OA
ATOM     23  C   UNL     1      -3.347   2.389   0.000  0.00  0.00    +0.253 C 
ENDBRANCH  13  22
BRANCH  14  24
ATOM     24  O   UNL     1      -2.507   0.885   0.000  0.00  0.00    -0.469 OA
ATOM     25  C   UNL     1      -3.347   1.374   0.000  0.00  0.00    +0.253 C 
ENDBRANCH  14  24
TORSDOF 2
ENDMDL
MODEL       69
REMARK  Name = 5-hydroxy-2,2-dimethyl-6-[(1E)-3-oxo-3-(piperidin-1-yl)prop-1-en-1-yl]-4-(piperidin-1-yl)-3,4-dihydro-2H-1-benzopyran-3-yl 3-methylbutanoate
REMARK  7 active torsions:
REMARK  status: ('A' for Active; 'I' for Inactive)
REMARK    1  A    between atoms: C_2  and  N_8
REMARK    2  A    between atoms: C_3  and  O_11
REMARK    3  A    between atoms: C_9  and  C_12
REMARK    4  A    between atoms: O_11  and  C_13
REMARK    5  A    between atoms: C_13  and  C_20
REMARK    6  A    between atoms: C_14  and  C_15
REMARK    7  A    between atoms: C_20  and  C_28
REMARK                            x       y       z     vdW  Elec       q    Type
REMARK                         _______ _______ _______ _____ _____    ______ ____
ROOT
ATOM      1  C   UNL     1       0.514  -0.881   0.000  0.00  0.00    +0.069 A 
ATOM      2  C   UNL     1      -0.337  -0.385   0.000  0.00  0.00    +0.196 A 
ATOM      3  O   UNL     1      -0.337   0.612   0.000  0.00  0.00    -0.287 OA
ATOM      4  C   UNL     1      -1.218  -0.881   0.000  0.00  0.00    +0.039 A 
ATOM      5  C   UNL     1      -1.218  -1.909   0.000  0.00  0.00    +0.006 A 
ATOM      6  C   UNL     1      -0.337  -2.417   0.000  0.00  0.00    +0.037 A 
ATOM      7  C   UNL     1       0.514  -1.909   0.000  0.00  0.00    +0.139 A 
ATOM      8  O   UNL     1       1.395  -2.417   0.000  0.00  0.00    -0.479 OA
ATOM      9  C   UNL     1       2.276  -1.909   0.000  0.00  0.00    +0.171 C 
ATOM     10  C   UNL     1       2.276  -0.881   0.000  0.00  0.00    +0.224 C 
ATOM     11  C   UNL     1       3.268  -1.830   0.000  0.00  0.00    +0.047 C 
ATOM     12  C   UNL     1       2.864  -2.735   0.000  0.00  0.00    +0.047 C 
ATOM     13  C   UNL     1       1.395  -0.385   0.000  0.00  0.00    +0.130 C 
ENDROOT
BRANCH  13  14
ATOM     14  N   UNL     1       1.359   0.612   0.000  0.00  0.00    -0.267 NA
ATOM     15  C   UNL     1       0.514   1.108   0.000  0.00  0.00    +0.072 C 
ATOM     16  C   UNL     1       0.514   2.111   0.000  0.00  0.00    +0.017 C 
ATOM     17  C   UNL     1       1.359   2.607   0.000  0.00  0.00    +0.003 C 
ATOM     18  C   UNL     1       2.276   2.111   0.000  0.00  0.00    +0.017 C 
ATOM     19  C   UNL     1       2.240   1.108   0.000  0.00  0.00    +0.072 C 
ENDBRANCH  13  14
BRANCH   4  20
ATOM     20  C   UNL     1      -2.099  -0.361   0.000  0.00  0.00    +0.008 C 
ATOM     21  C   UNL     1      -3.011  -0.857   0.000  0.00  0.00    +0.058 C 
BRANCH  21  22
ATOM     22  C   UNL     1      -3.861  -0.331   0.000  0.00  0.00    +0.249 C 
ATOM     23  O   UNL     1      -4.773  -0.801   0.000  0.00  0.00    -0.270 OA
ATOM     24  N   UNL     1      -3.837   0.667   0.000  0.00  0.00    -0.276 N 
ATOM     25  C   UNL     1      -2.955   1.175   0.000  0.00  0.00    +0.094 C 
ATOM     26  C   UNL     1      -2.925   2.166   0.000  0.00  0.00    +0.022 C 
ATOM     27  C   UNL     1      -3.782   2.699   0.000  0.00  0.00    +0.004 C 
ATOM     28  C   UNL     1      -4.663   2.203   0.000  0.00  0.00    +0.022 C 
ATOM     29  C   UNL     1      -4.688   1.199   0.000  0.00  0.00    +0.094 C 
ENDBRANCH  21  22
ENDBRANCH   4  20
BRANCH  10  30
ATOM     30  O   UNL     1       3.158  -0.361   0.000  0.00  0.00    -0.447 OA
BRANCH  30  31
ATOM     31  C   UNL     1       3.121   0.643   0.000  0.00  0.00    +0.317 C 
ATOM     32  O   UNL     1       2.552   0.992   0.000  0.00  0.00    -0.250 OA
BRANCH  31  33
ATOM     33  C   UNL     1       3.978   1.175   0.000  0.00  0.00    +0.110 C 
BRANCH  33  34
ATOM     34  C   UNL     1       3.947   2.203   0.000  0.00  0.00    +0.011 C 
ATOM     35  C   UNL     1       3.066   2.668   0.000  0.00  0.00    +0.001 C 
ATOM     36  C   UNL     1       4.773   2.735   0.000  0.00  0.00    +0.001 C 
ENDBRANCH  33  34
ENDBRANCH  31  33
ENDBRANCH  30  31
ENDBRANCH  10  30
TORSDOF 7
ENDMDL
MODEL       70
REMARK  Name = 1,3,6,7-tetrahydroxy-2-[3,4,5-trihydroxy-6-(hydroxymethyl)oxan-2-yl]-9H-xanthen-9-one
REMARK  2 active torsions:
REMARK  status: ('A' for Active; 'I' for Inactive)
REMARK    1  A    between atoms: C_2  and  C_4
REMARK    2  A    between atoms: C_15  and  C_29
REMARK                            x       y       z     vdW  Elec       q    Type
REMARK                         _______ _______ _______ _____ _____    ______ ____
ROOT
ATOM      1  C   UNL     1       1.998  -0.000   0.000  0.00  0.00    +0.112 A 
ATOM      2  C   UNL     1       1.998   0.815   0.000  0.00  0.00    +0.155 A 
ATOM      3  C   UNL     1       1.298   1.232   0.000  0.00  0.00    +0.080 A 
ATOM      4  C   UNL     1       0.570   0.815   0.000  0.00  0.00    +0.200 A 
ATOM      5  C   UNL     1       0.570  -0.000   0.000  0.00  0.00    +0.085 A 
ATOM      6  O   UNL     1      -0.153   1.254   0.000  0.00  0.00    -0.287 OA
ATOM      7  O   UNL     1       2.704   1.232   0.000  0.00  0.00    -0.453 OA
ATOM      8  C   UNL     1       3.404   0.815   0.000  0.00  0.00    +0.152 A 
ATOM      9  C   UNL     1       3.404  -0.000   0.000  0.00  0.00    +0.077 A 
ATOM     10  C   UNL     1       4.109  -0.416   0.000  0.00  0.00    +0.052 A 
ATOM     11  C   UNL     1       4.814  -0.000   0.000  0.00  0.00    +0.235 A 
ATOM     12  C   UNL     1       4.814   0.815   0.000  0.00  0.00    +0.237 A 
ATOM     13  O   UNL     1       5.537   1.254   0.000  0.00  0.00    -0.283 OA
ATOM     14  O   UNL     1       5.537  -0.440   0.000  0.00  0.00    -0.283 OA
ATOM     15  C   UNL     1       4.109   1.232   0.000  0.00  0.00    +0.083 A 
ATOM     16  C   UNL     1       1.298  -0.416   0.000  0.00  0.00    +0.203 A 
ATOM     17  O   UNL     1       1.298  -1.250   0.000  0.00  0.00    -0.287 OA
ATOM     18  C   UNL     1       2.704  -0.416   0.000  0.00  0.00    +0.205 A 
ATOM     19  O   UNL     1       2.704  -1.250   0.000  0.00  0.00    -0.286 OA
ENDROOT
BRANCH   5  20
ATOM     20  C   UNL     1      -0.812  -0.440   0.000  0.00  0.00    +0.177 C 
ATOM     21  C   UNL     1      -2.067  -0.119   0.000  0.00  0.00    +0.216 C 
ATOM     22  O   UNL     1      -2.067  -1.099   0.000  0.00  0.00    -0.217 OA
ATOM     23  C   UNL     1      -3.628  -0.701   0.000  0.00  0.00    +0.218 C 
ATOM     24  O   UNL     1      -4.228  -1.616   0.000  0.00  0.00    -0.217 OA
ATOM     25  C   UNL     1      -4.581   0.879   0.000  0.00  0.00    +0.214 C 
ATOM     26  C   UNL     1      -3.385   0.298   0.000  0.00  0.00    +0.181 C 
ATOM     27  O   UNL     1      -5.537   0.252   0.000  0.00  0.00    -0.218 OA
ATOM     28  O   UNL     1      -1.824   0.815   0.000  0.00  0.00    -0.346 OA
BRANCH  26  29
ATOM     29  C   UNL     1      -3.385   1.076   0.000  0.00  0.00    +0.214 C 
ATOM     30  O   UNL     1      -2.736   1.616   0.000  0.00  0.00    -0.218 OA
ENDBRANCH  26  29
ENDBRANCH   5  20
TORSDOF 2
ENDMDL
MODEL       71
REMARK  Name = 5,8a-dimethyl-3-methylidene-2H,3H,3aH,5H,6H,7H,8H,8aH,9H,9aH-naphtho[2,3-b]furan-2-one
REMARK  0 active torsions:
REMARK  status: ('A' for Active; 'I' for Inactive)
REMARK                            x       y       z     vdW  Elec       q    Type
REMARK                         _______ _______ _______ _____ _____    ______ ____
ROOT
ATOM      1  C   UNL     1       1.995   0.283   0.000  0.00  0.00    +0.338 C 
ATOM      2  O   UNL     1       2.999   0.283   0.000  0.00  0.00    -0.245 OA
ATOM      3  O   UNL     1       1.408   1.064   0.000  0.00  0.00    -0.449 OA
ATOM      4  C   UNL     1       0.474   0.773   0.000  0.00  0.00    +0.178 C 
ATOM      5  C   UNL     1       0.474  -0.232   0.000  0.00  0.00    +0.090 C 
ATOM      6  C   UNL     1      -0.408  -0.747   0.000  0.00  0.00    -0.027 C 
ATOM      7  C   UNL     1      -1.265  -0.232   0.000  0.00  0.00    -0.049 C 
ATOM      8  C   UNL     1      -1.265   0.773   0.000  0.00  0.00    +0.018 C 
ATOM      9  C   UNL     1      -1.265   1.752   0.000  0.00  0.00    +0.004 C 
ATOM     10  C   UNL     1      -2.143   1.262   0.000  0.00  0.00    +0.004 C 
ATOM     11  C   UNL     1      -2.999   0.773   0.000  0.00  0.00    +0.001 C 
ATOM     12  C   UNL     1      -2.999  -0.232   0.000  0.00  0.00    +0.004 C 
ATOM     13  C   UNL     1      -2.143  -0.747   0.000  0.00  0.00    +0.018 C 
ATOM     14  C   UNL     1      -2.168  -1.752   0.000  0.00  0.00    +0.004 C 
ATOM     15  C   UNL     1      -0.408   1.262   0.000  0.00  0.00    +0.048 C 
ATOM     16  C   UNL     1       1.408  -0.553   0.000  0.00  0.00    +0.061 C 
ATOM     17  C   UNL     1       1.724  -1.508   0.000  0.00  0.00    +0.002 C 
ENDROOT
TORSDOF 0
ENDMDL
MODEL       72
REMARK  Name = 6a-hydroxy-6,9a-dimethyl-3-methylidene-dodecahydroazuleno[4,5-b]furan-2,9-dione
REMARK  0 active torsions:
REMARK  status: ('A' for Active; 'I' for Inactive)
REMARK                            x       y       z     vdW  Elec       q    Type
REMARK                         _______ _______ _______ _____ _____    ______ ____
ROOT
ATOM      1  C   UNL     1      -0.890  -0.085   0.000  0.00  0.00    +0.114 C 
ATOM      2  C   UNL     1      -0.716  -1.075   0.000  0.00  0.00    +0.013 C 
ATOM      3  C   UNL     1      -1.788  -0.541   0.000  0.00  0.00    +0.156 C 
ATOM      4  O   UNL     1      -1.972  -1.366   0.000  0.00  0.00    -0.296 OA
ATOM      5  C   UNL     1      -2.511   0.206   0.000  0.00  0.00    +0.067 C 
ATOM      6  C   UNL     1      -2.045   1.065   0.000  0.00  0.00    +0.039 C 
ATOM      7  C   UNL     1      -1.055   0.939   0.000  0.00  0.00    +0.136 C 
ATOM      8  O   UNL     1      -1.298   1.953   0.000  0.00  0.00    -0.225 OA
ATOM      9  C   UNL     1      -0.357   1.681   0.000  0.00  0.00    +0.029 C 
ATOM     10  C   UNL     1      -0.750   2.671   0.000  0.00  0.00    +0.003 C 
ATOM     11  C   UNL     1       0.672   1.613   0.000  0.00  0.00    +0.003 C 
ATOM     12  C   UNL     1       1.254   0.750   0.000  0.00  0.00    +0.008 C 
ATOM     13  C   UNL     1       0.948  -0.226   0.000  0.00  0.00    +0.069 C 
ATOM     14  C   UNL     1       1.603  -1.007   0.000  0.00  0.00    +0.057 C 
ATOM     15  C   UNL     1       1.021  -1.870   0.000  0.00  0.00    +0.337 C 
ATOM     16  O   UNL     1       1.312  -2.671   0.000  0.00  0.00    -0.245 OA
ATOM     17  O   UNL     1       0.066  -1.599   0.000  0.00  0.00    -0.449 OA
ATOM     18  C   UNL     1       2.511  -0.890   0.000  0.00  0.00    +0.002 C 
ATOM     19  C   UNL     1      -0.007  -0.599   0.000  0.00  0.00    +0.182 C 
ENDROOT
TORSDOF 0
ENDMDL
MODEL       73
REMARK  Name = {[(9Z)-8,8-dimethyl-2-oxo-2H,8H,9H,10H-pyrano[2,3-h]chromen-9-ylidene]amino}thiourea
REMARK  2 active torsions:
REMARK  status: ('A' for Active; 'I' for Inactive)
REMARK    1  A    between atoms: N_9  and  N_14
REMARK    2  A    between atoms: C_10  and  N_14
REMARK                            x       y       z     vdW  Elec       q    Type
REMARK                         _______ _______ _______ _____ _____    ______ ____
ROOT
ATOM      1  C   UNL     1      -0.376   1.242   0.000  0.00  0.00    +0.052 A 
ATOM      2  C   UNL     1      -0.376   0.268   0.000  0.00  0.00    +0.079 C 
ATOM      3  C   UNL     1      -1.219  -0.268   0.000  0.00  0.00    +0.096 C 
ATOM      4  N   UNL     1      -1.219  -1.268   0.000  0.00  0.00    -0.162 NA
ATOM      5  C   UNL     1      -2.101   0.268   0.000  0.00  0.00    +0.166 C 
ATOM      6  O   UNL     1      -2.075   1.268   0.000  0.00  0.00    -0.478 OA
ATOM      7  C   UNL     1      -3.075   0.425   0.000  0.00  0.00    +0.050 C 
ATOM      8  C   UNL     1      -2.728  -0.542   0.000  0.00  0.00    +0.050 C 
ATOM      9  C   UNL     1      -1.219   1.738   0.000  0.00  0.00    +0.138 A 
ATOM     10  C   UNL     1      -1.219   2.751   0.000  0.00  0.00    +0.037 A 
ATOM     11  C   UNL     1      -0.376   3.248   0.000  0.00  0.00    +0.006 A 
ATOM     12  C   UNL     1       0.506   2.751   0.000  0.00  0.00    +0.035 A 
ATOM     13  C   UNL     1       1.375   3.248   0.000  0.00  0.00    +0.010 A 
ATOM     14  C   UNL     1       2.232   2.751   0.000  0.00  0.00    +0.082 A 
ATOM     15  C   UNL     1       2.199   1.712   0.000  0.00  0.00    +0.346 A 
ATOM     16  O   UNL     1       3.075   1.183   0.000  0.00  0.00    -0.244 OA
ATOM     17  O   UNL     1       1.349   1.242   0.000  0.00  0.00    -0.421 OA
ATOM     18  C   UNL     1       0.506   1.738   0.000  0.00  0.00    +0.148 A 
ENDROOT
BRANCH   4  19
ATOM     19  N   UNL     1      -2.101  -1.771   0.000  0.00  0.00    -0.092 NA
BRANCH  19  20
ATOM     20  C   UNL     1      -2.101  -2.738   0.000  0.00  0.00    +0.215 C 
ATOM     21  N   UNL     1      -1.219  -3.248   0.000  0.00  0.00    -0.100 NA
ATOM     22  S   UNL     1      -2.957  -3.248   0.000  0.00  0.00    -0.012 S 
ENDBRANCH  19  20
ENDBRANCH   4  19
TORSDOF 2
ENDMDL
MODEL       74
REMARK  Name = 2,2-dimethyl-3-{[(2Z)-2-methylbut-2-enoyl]oxy}-8-oxo-2H,3H,4H,8H-pyrano[3,2-g]chromen-4-yl 2,3-dimethyloxirane-2-carboxylate
REMARK  6 active torsions:
REMARK  status: ('A' for Active; 'I' for Inactive)
REMARK    1  A    between atoms: C_1  and  C_6
REMARK    2  A    between atoms: C_3  and  O_11
REMARK    3  A    between atoms: C_5  and  O_12
REMARK    4  A    between atoms: C_6  and  O_11
REMARK    5  A    between atoms: O_12  and  C_13
REMARK    6  A    between atoms: C_13  and  C_21
REMARK                            x       y       z     vdW  Elec       q    Type
REMARK                         _______ _______ _______ _____ _____    ______ ____
ROOT
ATOM      1  C   UNL     1      -0.896  -0.790   0.000  0.00  0.00    +0.237 C 
ATOM      2  C   UNL     1      -1.763  -1.297   0.000  0.00  0.00    +0.249 C 
ATOM      3  C   UNL     1      -1.763  -2.317   0.000  0.00  0.00    +0.174 C 
ATOM      4  C   UNL     1      -1.744  -3.230   0.000  0.00  0.00    +0.048 C 
ATOM      5  C   UNL     1      -2.626  -2.824   0.000  0.00  0.00    +0.048 C 
ATOM      6  O   UNL     1      -0.896  -2.824   0.000  0.00  0.00    -0.479 OA
ATOM      7  C   UNL     1      -0.021  -2.317   0.000  0.00  0.00    +0.141 A 
ATOM      8  C   UNL     1       0.873  -2.808   0.000  0.00  0.00    +0.074 A 
ATOM      9  C   UNL     1       1.774  -2.317   0.000  0.00  0.00    +0.152 A 
ATOM     10  O   UNL     1       2.668  -2.808   0.000  0.00  0.00    -0.421 OA
ATOM     11  C   UNL     1       3.524  -2.317   0.000  0.00  0.00    +0.346 A 
ATOM     12  O   UNL     1       4.387  -2.808   0.000  0.00  0.00    -0.244 OA
ATOM     13  C   UNL     1       3.524  -1.297   0.000  0.00  0.00    +0.082 A 
ATOM     14  C   UNL     1       2.668  -0.790   0.000  0.00  0.00    +0.010 A 
ATOM     15  C   UNL     1       1.774  -1.297   0.000  0.00  0.00    +0.035 A 
ATOM     16  C   UNL     1       0.873  -0.790   0.000  0.00  0.00    +0.005 A 
ATOM     17  C   UNL     1      -0.021  -1.297   0.000  0.00  0.00    +0.055 A 
ENDROOT
BRANCH   1  18
ATOM     18  O   UNL     1      -0.896   0.215   0.000  0.00  0.00    -0.442 OA
BRANCH  18  19
ATOM     19  C   UNL     1      -0.013   0.737   0.000  0.00  0.00    +0.344 C 
ATOM     20  O   UNL     1       0.861   0.249   0.000  0.00  0.00    -0.247 OA
BRANCH  19  21
ATOM     21  C   UNL     1      -0.013   1.742   0.000  0.00  0.00    +0.200 C 
ATOM     22  C   UNL     1      -0.969   1.742   0.000  0.00  0.00    +0.043 C 
ATOM     23  C   UNL     1       0.873   2.229   0.000  0.00  0.00    +0.171 C 
ATOM     24  C   UNL     1       1.736   1.715   0.000  0.00  0.00    +0.028 C 
ATOM     25  O   UNL     1      -0.021   2.532   0.000  0.00  0.00    -0.352 OA
ENDBRANCH  19  21
ENDBRANCH  18  19
ENDBRANCH   1  18
BRANCH   2  26
ATOM     26  O   UNL     1      -2.626  -0.790   0.000  0.00  0.00    -0.442 OA
BRANCH  26  27
ATOM     27  C   UNL     1      -2.626   0.230   0.000  0.00  0.00    +0.336 C 
ATOM     28  O   UNL     1      -1.744   0.737   0.000  0.00  0.00    -0.245 OA
BRANCH  27  29
ATOM     29  C   UNL     1      -3.501   0.737   0.000  0.00  0.00    +0.042 C 
ATOM     30  C   UNL     1      -4.349   0.215   0.000  0.00  0.00    +0.037 C 
ATOM     31  C   UNL     1      -3.501   1.761   0.000  0.00  0.00    -0.006 C 
ATOM     32  C   UNL     1      -2.626   2.267   0.000  0.00  0.00    +0.022 C 
ENDBRANCH  27  29
ENDBRANCH  26  27
ENDBRANCH   2  26
TORSDOF 6
ENDMDL
MODEL       75
REMARK  Name = {11-ETHYL-8,9-DIHYDROXY-4,6,16,18-TETRAMETHOXY-11-AZAHEXACYCLO[7.7.2.1^(2,5).0^(1,10).0^(3,8).0^(13,17)]NONADECAN-13-YL}METHYL 2-AMINOBENZOATE
REMARK  9 active torsions:
REMARK  status: ('A' for Active; 'I' for Inactive)
REMARK    1  A    between atoms: C_7  and  C_20
REMARK    2  A    between atoms: N_9  and  C_30
REMARK    3  A    between atoms: C_10  and  O_28
REMARK    4  A    between atoms: C_11  and  O_29
REMARK    5  A    between atoms: C_16  and  C_18
REMARK    6  A    between atoms: C_17  and  O_32
REMARK    7  A    between atoms: C_18  and  O_22
REMARK    8  A    between atoms: C_19  and  O_34
REMARK    9  A    between atoms: C_20  and  O_22
REMARK                            x       y       z     vdW  Elec       q    Type
REMARK                         _______ _______ _______ _____ _____    ______ ____
ROOT
ATOM      1  C   UNL     1       1.550  -0.283   0.000  0.00  0.00    +0.190 C 
ATOM      2  O   UNL     1       2.248  -0.946   0.000  0.00  0.00    -0.219 OA
ATOM      3  C   UNL     1       0.853  -0.566   0.000  0.00  0.00    +0.147 C 
ATOM      4  C   UNL     1       0.190  -0.249   0.000  0.00  0.00    +0.038 C 
ATOM      5  C   UNL     1       0.045   0.463   0.000  0.00  0.00    +0.044 C 
ATOM      6  C   UNL     1      -0.673   0.697   0.000  0.00  0.00    +0.117 C 
ATOM      7  C   UNL     1      -1.233   0.214   0.000  0.00  0.00    +0.030 C 
ATOM      8  C   UNL     1      -1.088  -0.532   0.000  0.00  0.00    +0.008 C 
ATOM      9  C   UNL     1       0.487   1.043   0.000  0.00  0.00    +0.009 C 
ATOM     10  C   UNL     1       1.267   1.043   0.000  0.00  0.00    +0.058 C 
ATOM     11  C   UNL     1       1.550   1.671   0.000  0.00  0.00    +0.120 C 
ATOM     12  C   UNL     1       0.770   2.168   0.000  0.00  0.00    +0.055 C 
ATOM     13  C   UNL     1       0.770   3.246   0.000  0.00  0.00    +0.120 C 
ATOM     14  C   UNL     1       3.505   1.920   0.000  0.00  0.00    +0.063 C 
ATOM     15  C   UNL     1       0.238   1.671   0.000  0.00  0.00    +0.005 C 
ATOM     16  C   UNL     1      -0.356  -0.766   0.000  0.00  0.00    +0.058 C 
ATOM     17  C   UNL     1      -1.005  -1.347   0.000  0.00  0.00    +0.076 C 
ATOM     18  N   UNL     1      -0.618   0.131   0.000  0.00  0.00    -0.271 NA
ATOM     19  C   UNL     1      -0.204   1.340   0.000  0.00  0.00    +0.093 C 
ATOM     20  C   UNL     1       1.716   0.414   0.000  0.00  0.00    +0.160 C 
ATOM     21  O   UNL     1       2.794   0.428   0.000  0.00  0.00    -0.223 OA
ENDROOT
BRANCH   3  22
ATOM     22  O   UNL     1       0.853  -1.540   0.000  0.00  0.00    -0.351 OA
ATOM     23  C   UNL     1       1.668  -2.058   0.000  0.00  0.00    +0.174 C 
ENDBRANCH   3  22
BRANCH   6  24
ATOM     24  O   UNL     1      -0.818   1.409   0.000  0.00  0.00    -0.354 OA
ATOM     25  C   UNL     1      -1.516   1.637   0.000  0.00  0.00    +0.174 C 
ENDBRANCH   6  24
BRANCH  13  26
ATOM     26  O   UNL     1       0.059   3.895   0.000  0.00  0.00    -0.353 OA
ATOM     27  C   UNL     1       0.238   4.841   0.000  0.00  0.00    +0.174 C 
ENDBRANCH  13  26
BRANCH  11  28
ATOM     28  O   UNL     1       2.365   1.671   0.000  0.00  0.00    -0.353 OA
ATOM     29  C   UNL     1       1.978   2.286   0.000  0.00  0.00    +0.174 C 
ENDBRANCH  11  28
BRANCH  18  30
ATOM     30  C   UNL     1      -1.778  -0.117   0.000  0.00  0.00    +0.072 C 
ATOM     31  C   UNL     1      -2.061  -1.015   0.000  0.00  0.00    +0.019 C 
ENDBRANCH  18  30
BRANCH  16  32
ATOM     32  C   UNL     1      -0.093  -1.906   0.000  0.00  0.00    +0.210 C 
BRANCH  32  33
ATOM     33  O   UNL     1      -0.950  -2.286   0.000  0.00  0.00    -0.445 OA
BRANCH  33  34
ATOM     34  C   UNL     1      -0.950  -2.935   0.000  0.00  0.00    +0.343 C 
ATOM     35  O   UNL     1      -0.059  -3.446   0.000  0.00  0.00    -0.245 OA
BRANCH  34  36
ATOM     36  C   UNL     1      -1.765  -3.384   0.000  0.00  0.00    +0.092 A 
ATOM     37  C   UNL     1      -2.607  -2.935   0.000  0.00  0.00    +0.008 A 
ATOM     38  C   UNL     1      -3.470  -3.384   0.000  0.00  0.00    +0.000 A 
ATOM     39  C   UNL     1      -3.505  -4.358   0.000  0.00  0.00    +0.001 A 
ATOM     40  C   UNL     1      -2.607  -4.841   0.000  0.00  0.00    +0.018 A 
ATOM     41  C   UNL     1      -1.765  -4.358   0.000  0.00  0.00    +0.095 A 
ATOM     42  N   UNL     1      -0.950  -4.841   0.000  0.00  0.00    -0.128 NA
ENDBRANCH  34  36
ENDBRANCH  33  34
ENDBRANCH  32  33
ENDBRANCH  16  32
TORSDOF 9
ENDMDL
MODEL       76
REMARK  Name = 11-ETHYL-3,8-DIHYDROXY-4,6,16-TRIMETHOXY-11-AZAHEXACYCLO[7.7.2.1^(2,5).0^(1,10).0^(3,8).0^(13,17)]NONADECAN-13-YL 2-AMINOBENZOATE
REMARK  7 active torsions:
REMARK  status: ('A' for Active; 'I' for Inactive)
REMARK    1  A    between atoms: C_8  and  O_17
REMARK    2  A    between atoms: N_9  and  C_28
REMARK    3  A    between atoms: C_10  and  O_27
REMARK    4  A    between atoms: C_13  and  C_16
REMARK    5  A    between atoms: C_13  and  O_17
REMARK    6  A    between atoms: C_19  and  O_30
REMARK    7  A    between atoms: C_20  and  O_32
REMARK                            x       y       z     vdW  Elec       q    Type
REMARK                         _______ _______ _______ _____ _____    ______ ____
ROOT
ATOM      1  C   UNL     1       0.561   0.983   0.000  0.00  0.00    +0.177 C 
ATOM      2  O   UNL     1       1.311   0.965   0.000  0.00  0.00    -0.221 OA
ATOM      3  C   UNL     1       0.844   1.621   0.000  0.00  0.00    +0.148 C 
ATOM      4  C   UNL     1       0.047   2.146   0.000  0.00  0.00    +0.057 C 
ATOM      5  C   UNL     1      -0.502   1.632   0.000  0.00  0.00    +0.008 C 
ATOM      6  C   UNL     1       0.047   3.232   0.000  0.00  0.00    +0.120 C 
ATOM      7  C   UNL     1       2.840   1.886   0.000  0.00  0.00    +0.063 C 
ATOM      8  C   UNL     1      -0.236   0.983   0.000  0.00  0.00    +0.037 C 
ATOM      9  C   UNL     1      -0.703   0.387   0.000  0.00  0.00    +0.044 C 
ATOM     10  C   UNL     1      -1.441   0.629   0.000  0.00  0.00    +0.117 C 
ATOM     11  C   UNL     1      -2.007   0.133   0.000  0.00  0.00    +0.033 C 
ATOM     12  C   UNL     1      -1.848  -0.635   0.000  0.00  0.00    +0.044 C 
ATOM     13  C   UNL     1      -1.116  -0.877   0.000  0.00  0.00    +0.151 C 
ATOM     14  C   UNL     1      -1.765  -1.455   0.000  0.00  0.00    +0.113 C 
ATOM     15  N   UNL     1      -1.452   0.033   0.000  0.00  0.00    -0.271 NA
ATOM     16  C   UNL     1      -0.549  -0.351   0.000  0.00  0.00    +0.042 C 
ATOM     17  C   UNL     1       0.136  -0.676   0.000  0.00  0.00    +0.008 C 
ATOM     18  C   UNL     1       0.844  -0.381   0.000  0.00  0.00    +0.045 C 
ATOM     19  C   UNL     1      -0.703   1.196   0.000  0.00  0.00    +0.062 C 
ATOM     20  C   UNL     1       1.010   0.345   0.000  0.00  0.00    +0.158 C 
ATOM     21  O   UNL     1       1.736   0.345   0.000  0.00  0.00    -0.223 OA
ENDROOT
BRANCH   3  22
ATOM     22  O   UNL     1       1.665   1.621   0.000  0.00  0.00    -0.351 OA
ATOM     23  C   UNL     1       1.293   2.258   0.000  0.00  0.00    +0.174 C 
ENDBRANCH   3  22
BRANCH   6  24
ATOM     24  O   UNL     1      -0.691   3.900   0.000  0.00  0.00    -0.353 OA
ATOM     25  C   UNL     1      -0.502   4.868   0.000  0.00  0.00    +0.174 C 
ENDBRANCH   6  24
BRANCH  10  26
ATOM     26  O   UNL     1      -1.594   1.367   0.000  0.00  0.00    -0.354 OA
ATOM     27  C   UNL     1      -2.303   1.603   0.000  0.00  0.00    +0.174 C 
ENDBRANCH  10  26
BRANCH  15  28
ATOM     28  C   UNL     1      -2.556  -0.210   0.000  0.00  0.00    +0.072 C 
ATOM     29  C   UNL     1      -2.840  -1.131   0.000  0.00  0.00    +0.019 C 
ENDBRANCH  15  28
BRANCH  13  30
ATOM     30  O   UNL     1      -0.986  -1.609   0.000  0.00  0.00    -0.451 OA
BRANCH  30  31
ATOM     31  C   UNL     1      -0.035  -1.940   0.000  0.00  0.00    +0.342 C 
ATOM     32  O   UNL     1       0.726  -1.284   0.000  0.00  0.00    -0.245 OA
BRANCH  31  33
ATOM     33  C   UNL     1       0.136  -2.902   0.000  0.00  0.00    +0.092 A 
ATOM     34  C   UNL     1       1.081  -3.226   0.000  0.00  0.00    +0.008 A 
ATOM     35  C   UNL     1       1.269  -4.207   0.000  0.00  0.00    +0.000 A 
ATOM     36  C   UNL     1       0.514  -4.868   0.000  0.00  0.00    +0.001 A 
ATOM     37  C   UNL     1      -0.419  -4.531   0.000  0.00  0.00    +0.018 A 
ATOM     38  C   UNL     1      -0.602  -3.551   0.000  0.00  0.00    +0.095 A 
ATOM     39  N   UNL     1      -1.541  -3.226   0.000  0.00  0.00    -0.128 NA
ENDBRANCH  31  33
ENDBRANCH  30  31
ENDBRANCH  13  30
TORSDOF 7
ENDMDL
MODEL       77
REMARK  Name = 5-hydroxy-5,8-dimethyl-3-methylidene-2-oxo-2H,3H,3aH,4H,4aH,5H,6H,7H,7aH,9aH-azuleno[6,5-b]furan-7-yl acetate
REMARK  2 active torsions:
REMARK  status: ('A' for Active; 'I' for Inactive)
REMARK    1  A    between atoms: C_11  and  O_14
REMARK    2  A    between atoms: O_14  and  C_15
REMARK                            x       y       z     vdW  Elec       q    Type
REMARK                         _______ _______ _______ _____ _____    ______ ____
ROOT
ATOM      1  C   UNL     1      -0.374   0.363   0.000  0.00  0.00    +0.045 C 
ATOM      2  C   UNL     1      -0.374  -0.652   0.000  0.00  0.00    +0.007 C 
ATOM      3  C   UNL     1       0.424  -1.262   0.000  0.00  0.00    +0.073 C 
ATOM      4  C   UNL     1       1.411  -0.996   0.000  0.00  0.00    +0.195 C 
ATOM      5  C   UNL     1       1.811  -0.091   0.000  0.00  0.00    +0.008 C 
ATOM      6  C   UNL     1       1.356   0.813   0.000  0.00  0.00    -0.046 C 
ATOM      7  C   UNL     1       1.966   1.478   0.000  0.00  0.00    +0.026 C 
ATOM      8  O   UNL     1       1.944  -1.850   0.000  0.00  0.00    -0.445 OA
ATOM      9  C   UNL     1       1.301  -2.593   0.000  0.00  0.00    +0.337 C 
ATOM     10  O   UNL     1       1.622  -3.580   0.000  0.00  0.00    -0.245 OA
ATOM     11  C   UNL     1       0.369  -2.249   0.000  0.00  0.00    +0.057 C 
ATOM     12  C   UNL     1      -0.507  -2.809   0.000  0.00  0.00    +0.002 C 
ATOM     13  C   UNL     1      -1.201   0.918   0.000  0.00  0.00    +0.127 C 
ATOM     14  C   UNL     1      -1.839   0.147   0.000  0.00  0.00    +0.033 C 
ATOM     15  O   UNL     1      -2.183   0.946   0.000  0.00  0.00    -0.226 OA
ATOM     16  C   UNL     1      -0.934   1.877   0.000  0.00  0.00    +0.074 C 
ATOM     17  C   UNL     1       0.053   1.933   0.000  0.00  0.00    +0.171 C 
ATOM     18  C   UNL     1       0.397   1.001   0.000  0.00  0.00    +0.071 C 
ENDROOT
BRANCH  17  19
ATOM     19  O   UNL     1       0.613   2.782   0.000  0.00  0.00    -0.452 OA
BRANCH  19  20
ATOM     20  C   UNL     1       1.650   2.732   0.000  0.00  0.00    +0.317 C 
ATOM     21  C   UNL     1       2.183   3.580   0.000  0.00  0.00    +0.121 C 
ATOM     22  O   UNL     1       2.127   1.850   0.000  0.00  0.00    -0.250 OA
ENDBRANCH  19  20
ENDBRANCH  17  19
TORSDOF 2
ENDMDL
MODEL       78
REMARK  Name = 10-(acetyloxy)-8,8-dimethyl-2-oxo-2H,8H,9H,10H-pyrano[2,3-h]chromen-9-yl 3-methylbutanoate
REMARK  6 active torsions:
REMARK  status: ('A' for Active; 'I' for Inactive)
REMARK    1  A    between atoms: C_2  and  O_12
REMARK    2  A    between atoms: C_4  and  O_10
REMARK    3  A    between atoms: O_10  and  C_11
REMARK    4  A    between atoms: C_11  and  C_22
REMARK    5  A    between atoms: O_12  and  C_16
REMARK    6  A    between atoms: C_22  and  C_26
REMARK                            x       y       z     vdW  Elec       q    Type
REMARK                         _______ _______ _______ _____ _____    ______ ____
ROOT
ATOM      1  C   UNL     1       0.421   1.003   0.000  0.00  0.00    +0.090 A 
ATOM      2  C   UNL     1      -0.439   1.508   0.000  0.00  0.00    +0.141 A 
ATOM      3  C   UNL     1      -0.439   2.514   0.000  0.00  0.00    +0.037 A 
ATOM      4  C   UNL     1       0.421   2.985   0.000  0.00  0.00    +0.006 A 
ATOM      5  C   UNL     1       1.258   2.514   0.000  0.00  0.00    +0.035 A 
ATOM      6  C   UNL     1       2.124   2.985   0.000  0.00  0.00    +0.010 A 
ATOM      7  C   UNL     1       2.990   2.514   0.000  0.00  0.00    +0.082 A 
ATOM      8  C   UNL     1       2.990   1.508   0.000  0.00  0.00    +0.346 A 
ATOM      9  O   UNL     1       3.857   1.003   0.000  0.00  0.00    -0.244 OA
ATOM     10  O   UNL     1       2.124   1.003   0.000  0.00  0.00    -0.421 OA
ATOM     11  O   UNL     1      -1.305   1.003   0.000  0.00  0.00    -0.479 OA
ATOM     12  C   UNL     1      -1.276   0.026   0.000  0.00  0.00    +0.174 C 
ATOM     13  C   UNL     1      -0.415  -0.445   0.000  0.00  0.00    +0.249 C 
ATOM     14  C   UNL     1      -2.252   0.253   0.000  0.00  0.00    +0.048 C 
ATOM     15  C   UNL     1      -2.113  -0.474   0.000  0.00  0.00    +0.048 C 
ATOM     16  C   UNL     1       1.258   1.508   0.000  0.00  0.00    +0.151 A 
ATOM     17  C   UNL     1       0.421   0.026   0.000  0.00  0.00    +0.240 C 
ENDROOT
BRANCH  13  18
ATOM     18  O   UNL     1      -0.415  -1.450   0.000  0.00  0.00    -0.444 OA
BRANCH  18  19
ATOM     19  C   UNL     1      -1.276  -1.927   0.000  0.00  0.00    +0.317 C 
ATOM     20  O   UNL     1      -1.276  -2.927   0.000  0.00  0.00    -0.250 OA
BRANCH  19  21
ATOM     21  C   UNL     1      -2.113  -1.450   0.000  0.00  0.00    +0.110 C 
BRANCH  21  22
ATOM     22  C   UNL     1      -3.020  -1.979   0.000  0.00  0.00    +0.011 C 
ATOM     23  C   UNL     1      -3.857  -1.520   0.000  0.00  0.00    +0.001 C 
ATOM     24  C   UNL     1      -3.020  -2.985   0.000  0.00  0.00    +0.001 C 
ENDBRANCH  21  22
ENDBRANCH  19  21
ENDBRANCH  18  19
ENDBRANCH  13  18
BRANCH  17  25
ATOM     25  O   UNL     1       1.288  -0.474   0.000  0.00  0.00    -0.444 OA
BRANCH  25  26
ATOM     26  C   UNL     1       1.288  -1.462   0.000  0.00  0.00    +0.318 C 
ATOM     27  C   UNL     1       2.374  -2.066   0.000  0.00  0.00    +0.121 C 
ATOM     28  O   UNL     1       0.381  -1.927   0.000  0.00  0.00    -0.250 OA
ENDBRANCH  25  26
ENDBRANCH  17  25
TORSDOF 6
ENDMDL
MODEL       79
REMARK  Name = 2-[3-(acetyloxy)-4-methoxyphenyl]-3,5,7-trimethoxy-4-oxo-4H-chromen-6-yl acetate
REMARK  9 active torsions:
REMARK  status: ('A' for Active; 'I' for Inactive)
REMARK    1  A    between atoms: C_3  and  O_21
REMARK    2  A    between atoms: C_4  and  C_9
REMARK    3  A    between atoms: C_6  and  O_25
REMARK    4  A    between atoms: C_8  and  O_13
REMARK    5  A    between atoms: C_10  and  O_26
REMARK    6  A    between atoms: C_12  and  O_15
REMARK    7  A    between atoms: O_13  and  C_16
REMARK    8  A    between atoms: O_15  and  C_17
REMARK    9  A    between atoms: C_19  and  O_27
REMARK                            x       y       z     vdW  Elec       q    Type
REMARK                         _______ _______ _______ _____ _____    ______ ____
ROOT
ATOM      1  C   UNL     1      -1.292  -1.746   0.000  0.00  0.00    +0.114 A 
ATOM      2  C   UNL     1      -1.292  -0.746   0.000  0.00  0.00    +0.155 A 
ATOM      3  C   UNL     1      -2.155  -0.246   0.000  0.00  0.00    +0.078 A 
ATOM      4  C   UNL     1      -3.017  -0.746   0.000  0.00  0.00    +0.179 A 
ATOM      5  C   UNL     1      -3.017  -1.746   0.000  0.00  0.00    +0.216 A 
ATOM      6  O   UNL     1      -0.429  -0.233   0.000  0.00  0.00    -0.450 OA
ATOM      7  C   UNL     1       0.446  -0.746   0.000  0.00  0.00    +0.182 A 
ATOM      8  C   UNL     1       0.446  -1.746   0.000  0.00  0.00    +0.212 A 
ATOM      9  C   UNL     1      -2.155  -2.246   0.000  0.00  0.00    +0.182 A 
ATOM     10  C   UNL     1      -0.429  -2.246   0.000  0.00  0.00    +0.238 A 
ATOM     11  O   UNL     1      -0.429  -3.246   0.000  0.00  0.00    -0.283 OA
ENDROOT
BRANCH   7  12
ATOM     12  C   UNL     1       1.313  -0.254   0.000  0.00  0.00    +0.041 A 
ATOM     13  C   UNL     1       2.175  -0.754   0.000  0.00  0.00    +0.006 A 
ATOM     14  C   UNL     1       3.038  -0.258   0.000  0.00  0.00    +0.040 A 
ATOM     15  C   UNL     1       3.038   0.746   0.000  0.00  0.00    +0.173 A 
ATOM     16  C   UNL     1       2.175   1.246   0.000  0.00  0.00    +0.182 A 
ATOM     17  C   UNL     1       1.313   0.746   0.000  0.00  0.00    +0.044 A 
BRANCH  15  18
ATOM     18  O   UNL     1       3.913   1.242   0.000  0.00  0.00    -0.468 OA
ATOM     19  C   UNL     1       4.776   0.746   0.000  0.00  0.00    +0.253 C 
ENDBRANCH  15  18
BRANCH  16  20
ATOM     20  O   UNL     1       2.171   2.246   0.000  0.00  0.00    -0.421 OA
BRANCH  20  21
ATOM     21  C   UNL     1       1.300   2.746   0.000  0.00  0.00    +0.322 C 
ATOM     22  C   UNL     1       0.438   2.246   0.000  0.00  0.00    +0.122 C 
ATOM     23  O   UNL     1       1.300   3.746   0.000  0.00  0.00    -0.250 OA
ENDBRANCH  20  21
ENDBRANCH  16  20
ENDBRANCH   7  12
BRANCH   4  24
ATOM     24  O   UNL     1      -3.888  -0.254   0.000  0.00  0.00    -0.468 OA
ATOM     25  C   UNL     1      -3.888   0.746   0.000  0.00  0.00    +0.253 C 
ENDBRANCH   4  24
BRANCH   8  26
ATOM     26  O   UNL     1       1.309  -2.246   0.000  0.00  0.00    -0.465 OA
ATOM     27  C   UNL     1       1.300  -3.246   0.000  0.00  0.00    +0.253 C 
ENDBRANCH   8  26
BRANCH   9  28
ATOM     28  O   UNL     1      -2.155  -3.246   0.000  0.00  0.00    -0.468 OA
ATOM     29  C   UNL     1      -1.292  -3.746   0.000  0.00  0.00    +0.253 C 
ENDBRANCH   9  28
BRANCH   5  30
ATOM     30  O   UNL     1      -3.888  -2.246   0.000  0.00  0.00    -0.418 OA
BRANCH  30  31
ATOM     31  C   UNL     1      -3.901  -3.246   0.000  0.00  0.00    +0.322 C 
ATOM     32  C   UNL     1      -3.038  -3.746   0.000  0.00  0.00    +0.122 C 
ATOM     33  O   UNL     1      -4.776  -3.734   0.000  0.00  0.00    -0.250 OA
ENDBRANCH  30  31
ENDBRANCH   5  30
TORSDOF 9
ENDMDL
MODEL       80
REMARK  Name = 7-methoxy-1-methyl-9H-pyrido[3,4-b]indole
REMARK  1 active torsions:
REMARK  status: ('A' for Active; 'I' for Inactive)
REMARK    1  A    between atoms: C_10  and  O_14
REMARK                            x       y       z     vdW  Elec       q    Type
REMARK                         _______ _______ _______ _____ _____    ______ ____
ROOT
ATOM      1  N   UNL     1       1.104  -1.220   0.000  0.00  0.00    -0.244 NA
ATOM      2  C   UNL     1       1.696  -0.417   0.000  0.00  0.00    +0.095 A 
ATOM      3  C   UNL     1       2.706  -0.306   0.000  0.00  0.00    +0.077 A 
ATOM      4  C   UNL     1       3.304  -1.126   0.000  0.00  0.00    +0.054 C 
ATOM      5  N   UNL     1       3.122   0.596   0.000  0.00  0.00    -0.247 NA
ATOM      6  C   UNL     1       2.525   1.416   0.000  0.00  0.00    +0.099 A 
ATOM      7  C   UNL     1       1.526   1.313   0.000  0.00  0.00    +0.022 A 
ATOM      8  C   UNL     1       1.110   0.391   0.000  0.00  0.00    +0.022 A 
ATOM      9  C   UNL     1       0.170   0.069   0.000  0.00  0.00    +0.019 A 
ATOM     10  C   UNL     1      -0.694   0.567   0.000  0.00  0.00    +0.005 A 
ATOM     11  C   UNL     1      -1.561   0.054   0.000  0.00  0.00    +0.037 A 
ATOM     12  C   UNL     1      -1.546  -0.930   0.000  0.00  0.00    +0.140 A 
ATOM     13  C   UNL     1      -0.682  -1.416   0.000  0.00  0.00    +0.056 A 
ATOM     14  C   UNL     1       0.170  -0.915   0.000  0.00  0.00    +0.084 A 
ENDROOT
BRANCH  12  15
ATOM     15  O   UNL     1      -2.440  -1.416   0.000  0.00  0.00    -0.471 OA
ATOM     16  C   UNL     1      -3.304  -0.903   0.000  0.00  0.00    +0.252 C 
ENDBRANCH  12  15
TORSDOF 1
ENDMDL
MODEL       81
REMARK  Name = 9-hydroxy-3,5a,9-trimethyl-dodecahydronaphtho[1,2-b]furan-2,6-dione
REMARK  0 active torsions:
REMARK  status: ('A' for Active; 'I' for Inactive)
REMARK                            x       y       z     vdW  Elec       q    Type
REMARK                         _______ _______ _______ _____ _____    ______ ____
ROOT
ATOM      1  C   UNL     1      -0.018  -0.538   0.000  0.00  0.00    +0.172 C 
ATOM      2  C   UNL     1       0.863  -0.029   0.000  0.00  0.00    +0.051 C 
ATOM      3  C   UNL     1       0.863   0.967   0.000  0.00  0.00    +0.005 C 
ATOM      4  C   UNL     1      -0.018   1.476   0.000  0.00  0.00    +0.007 C 
ATOM      5  C   UNL     1      -0.879   0.967   0.000  0.00  0.00    +0.057 C 
ATOM      6  C   UNL     1      -0.879   1.986   0.000  0.00  0.00    +0.008 C 
ATOM      7  C   UNL     1      -1.743   1.476   0.000  0.00  0.00    +0.150 C 
ATOM      8  C   UNL     1      -2.604   0.967   0.000  0.00  0.00    +0.067 C 
ATOM      9  C   UNL     1      -2.604  -0.029   0.000  0.00  0.00    +0.038 C 
ATOM     10  C   UNL     1      -1.743  -0.538   0.000  0.00  0.00    +0.131 C 
ATOM     11  C   UNL     1      -1.780  -1.517   0.000  0.00  0.00    +0.033 C 
ATOM     12  O   UNL     1      -2.465  -1.203   0.000  0.00  0.00    -0.226 OA
ATOM     13  O   UNL     1      -1.743   2.475   0.000  0.00  0.00    -0.296 OA
ATOM     14  C   UNL     1       1.605  -0.714   0.000  0.00  0.00    +0.103 C 
ATOM     15  C   UNL     1       1.193  -1.615   0.000  0.00  0.00    +0.316 C 
ATOM     16  O   UNL     1       1.682  -2.475   0.000  0.00  0.00    -0.250 OA
ATOM     17  C   UNL     1       2.604  -0.518   0.000  0.00  0.00    +0.012 C 
ATOM     18  O   UNL     1       0.198  -1.497   0.000  0.00  0.00    -0.452 OA
ATOM     19  C   UNL     1      -0.879  -0.029   0.000  0.00  0.00    +0.075 C 
ENDROOT
TORSDOF 0
ENDMDL
MODEL       82
REMARK  Name = 6,7-dimethoxy-1-methyl-1,2,3,4-tetrahydroisoquinoline
REMARK  2 active torsions:
REMARK  status: ('A' for Active; 'I' for Inactive)
REMARK    1  A    between atoms: C_4  and  O_10
REMARK    2  A    between atoms: C_6  and  O_11
REMARK                            x       y       z     vdW  Elec       q    Type
REMARK                         _______ _______ _______ _____ _____    ______ ____
ROOT
ATOM      1  C   UNL     1       0.859  -0.013   0.000  0.00  0.00    -0.007 A 
ATOM      2  C   UNL     1       1.726  -0.503   0.000  0.00  0.00    +0.095 C 
ATOM      3  C   UNL     1       1.713  -1.495   0.000  0.00  0.00    +0.024 C 
ATOM      4  N   UNL     1       2.598  -0.013   0.000  0.00  0.00    -0.215 NA
ATOM      5  C   UNL     1       2.598   1.001   0.000  0.00  0.00    +0.094 C 
ATOM      6  C   UNL     1       1.726   1.495   0.000  0.00  0.00    +0.045 C 
ATOM      7  C   UNL     1       0.859   0.992   0.000  0.00  0.00    -0.020 A 
ATOM      8  C   UNL     1      -0.004   1.495   0.000  0.00  0.00    +0.036 A 
ATOM      9  C   UNL     1      -0.872   0.992   0.000  0.00  0.00    +0.172 A 
ATOM     10  C   UNL     1      -0.872  -0.013   0.000  0.00  0.00    +0.172 A 
ATOM     11  C   UNL     1      -0.004  -0.516   0.000  0.00  0.00    +0.037 A 
ENDROOT
BRANCH  10  12
ATOM     12  O   UNL     1      -1.735  -0.516   0.000  0.00  0.00    -0.468 OA
ATOM     13  C   UNL     1      -2.590  -0.022   0.000  0.00  0.00    +0.253 C 
ENDBRANCH  10  12
BRANCH   9  14
ATOM     14  O   UNL     1      -1.735   1.495   0.000  0.00  0.00    -0.468 OA
ATOM     15  C   UNL     1      -2.598   1.001   0.000  0.00  0.00    +0.253 C 
ENDBRANCH   9  14
TORSDOF 2
ENDMDL
MODEL       83
REMARK  Name = N-(5-ETHYL-1,3-THIAZOL-2-YL)-2-{6-OXO-7,11-DIAZATRICYCLO[7.3.1.0^(2,7)]TRIDECA-2,4-DIEN-11-YL}ACETAMIDE
REMARK  3 active torsions:
REMARK  status: ('A' for Active; 'I' for Inactive)
REMARK    1  A    between atoms: N_13  and  C_14
REMARK    2  A    between atoms: C_14  and  C_15
REMARK    3  A    between atoms: C_22  and  C_24
REMARK                            x       y       z     vdW  Elec       q    Type
REMARK                         _______ _______ _______ _____ _____    ______ ____
ROOT
ATOM      1  C   UNL     1      -5.131   0.748   0.000  0.00  0.00    +0.006 A 
ATOM      2  C   UNL     1      -4.265   1.252   0.000  0.00  0.00    +0.013 A 
ATOM      3  C   UNL     1      -3.399   0.748   0.000  0.00  0.00    +0.041 A 
ATOM      4  N   UNL     1      -3.403  -0.254   0.000  0.00  0.00    -0.299 N 
ATOM      5  C   UNL     1      -2.541  -0.759   0.000  0.00  0.00    +0.110 C 
ATOM      6  C   UNL     1      -1.669  -0.262   0.000  0.00  0.00    +0.039 C 
ATOM      7  C   UNL     1      -1.665   0.741   0.000  0.00  0.00    +0.011 C 
ATOM      8  C   UNL     1      -0.809   0.244   0.000  0.00  0.00    +0.074 C 
ATOM      9  N   UNL     1      -0.814   1.247   0.000  0.00  0.00    -0.265 NA
ATOM     10  C   UNL     1      -1.670   1.756   0.000  0.00  0.00    +0.078 C 
ATOM     11  C   UNL     1      -4.265  -0.753   0.000  0.00  0.00    +0.261 A 
ATOM     12  O   UNL     1      -4.263  -1.756   0.000  0.00  0.00    -0.267 OA
ATOM     13  C   UNL     1      -2.533   1.246   0.000  0.00  0.00    +0.054 C 
ATOM     14  C   UNL     1      -5.131  -0.254   0.000  0.00  0.00    +0.061 A 
ENDROOT
BRANCH   9  15
ATOM     15  C   UNL     1       0.053   1.756   0.000  0.00  0.00    +0.161 C 
BRANCH  15  16
ATOM     16  C   UNL     1       0.919   1.252   0.000  0.00  0.00    +0.264 C 
ATOM     17  N   UNL     1       1.789   1.755   0.000  0.00  0.00    -0.153 NA
ATOM     18  C   UNL     1       2.652   1.252   0.000  0.00  0.00    +0.186 A 
ATOM     19  N   UNL     1       3.564   1.659   0.000  0.00  0.00    -0.221 NA
ATOM     20  C   UNL     1       4.227   0.915   0.000  0.00  0.00    +0.103 A 
ATOM     21  C   UNL     1       3.729   0.056   0.000  0.00  0.00    +0.029 A 
ATOM     22  S   UNL     1       2.754   0.260   0.000  0.00  0.00    -0.054 S 
ATOM     23  O   UNL     1       0.918   0.249   0.000  0.00  0.00    -0.271 OA
BRANCH  21  24
ATOM     24  C   UNL     1       4.136  -0.855   0.000  0.00  0.00    +0.035 C 
ATOM     25  C   UNL     1       5.131  -0.854   0.000  0.00  0.00    +0.006 C 
ENDBRANCH  21  24
ENDBRANCH  15  16
ENDBRANCH   9  15
TORSDOF 3
ENDMDL
MODEL       84
REMARK  Name = 11-ETHYL-8,16-DIHYDROXY-6-METHOXY-13-(METHOXYMETHYL)-11-AZAHEXACYCLO[7.7.2.1^(2,5).0^(1,10).0^(3,8).0^(13,17)]NONADECAN-4-YL ACETATE
REMARK  6 active torsions:
REMARK  status: ('A' for Active; 'I' for Inactive)
REMARK    1  A    between atoms: N_8  and  C_24
REMARK    2  A    between atoms: C_9  and  O_17
REMARK    3  A    between atoms: C_10  and  C_25
REMARK    4  A    between atoms: C_16  and  O_26
REMARK    5  A    between atoms: O_17  and  C_19
REMARK    6  A    between atoms: C_25  and  O_28
REMARK                            x       y       z     vdW  Elec       q    Type
REMARK                         _______ _______ _______ _____ _____    ______ ____
ROOT
ATOM      1  C   UNL     1      -0.850   0.049   0.000  0.00  0.00    +0.042 C 
ATOM      2  C   UNL     1      -1.569   0.281   0.000  0.00  0.00    +0.153 C 
ATOM      3  O   UNL     1      -1.727   1.004   0.000  0.00  0.00    -0.223 OA
ATOM      4  C   UNL     1      -2.126  -0.203   0.000  0.00  0.00    +0.033 C 
ATOM      5  C   UNL     1      -1.971  -0.955   0.000  0.00  0.00    +0.006 C 
ATOM      6  C   UNL     1      -1.248  -1.191   0.000  0.00  0.00    +0.042 C 
ATOM      7  C   UNL     1      -1.890  -1.756   0.000  0.00  0.00    +0.074 C 
ATOM      8  N   UNL     1      -1.581  -0.305   0.000  0.00  0.00    -0.274 NA
ATOM      9  C   UNL     1      -0.691  -0.675   0.000  0.00  0.00    +0.007 C 
ATOM     10  C   UNL     1      -0.029  -0.996   0.000  0.00  0.00    +0.004 C 
ATOM     11  C   UNL     1       0.663  -0.703   0.000  0.00  0.00    +0.043 C 
ATOM     12  C   UNL     1       0.829   0.000   0.000  0.00  0.00    +0.133 C 
ATOM     13  O   UNL     1       1.540   0.000   0.000  0.00  0.00    -0.225 OA
ATOM     14  C   UNL     1       2.662   1.317   0.000  0.00  0.00    +0.060 C 
ATOM     15  C   UNL     1      -0.098   2.622   0.000  0.00  0.00    +0.121 C 
ATOM     16  C   UNL     1      -0.106   1.764   0.000  0.00  0.00    +0.067 C 
ATOM     17  C   UNL     1       0.663   1.248   0.000  0.00  0.00    +0.173 C 
ATOM     18  C   UNL     1      -0.654   1.268   0.000  0.00  0.00    +0.006 C 
ATOM     19  C   UNL     1       0.390   0.622   0.000  0.00  0.00    +0.068 C 
ATOM     20  C   UNL     1      -0.390   0.622   0.000  0.00  0.00    +0.010 C 
ATOM     21  C   UNL     1      -0.850   0.837   0.000  0.00  0.00    +0.062 C 
ENDROOT
BRANCH   8  22
ATOM     22  C   UNL     1      -2.662  -0.537   0.000  0.00  0.00    +0.072 C 
ATOM     23  C   UNL     1      -2.947  -1.443   0.000  0.00  0.00    +0.019 C 
ENDBRANCH   8  22
BRANCH  15  24
ATOM     24  O   UNL     1      -0.976   3.170   0.000  0.00  0.00    -0.353 OA
ATOM     25  C   UNL     1      -1.833   2.487   0.000  0.00  0.00    +0.174 C 
ENDBRANCH  15  24
BRANCH   6  26
ATOM     26  C   UNL     1      -1.122  -1.914   0.000  0.00  0.00    +0.143 C 
BRANCH  26  27
ATOM     27  O   UNL     1      -0.195  -2.236   0.000  0.00  0.00    -0.351 OA
ATOM     28  C   UNL     1      -0.029  -3.170   0.000  0.00  0.00    +0.174 C 
ENDBRANCH  26  27
ENDBRANCH   6  26
BRANCH  17  29
ATOM     29  O   UNL     1       1.475   1.248   0.000  0.00  0.00    -0.452 OA
BRANCH  29  30
ATOM     30  C   UNL     1       1.971   2.118   0.000  0.00  0.00    +0.317 C 
ATOM     31  C   UNL     1       2.947   2.118   0.000  0.00  0.00    +0.121 C 
ATOM     32  O   UNL     1       1.553   3.073   0.000  0.00  0.00    -0.250 OA
ENDBRANCH  29  30
ENDBRANCH  17  29
TORSDOF 6
ENDMDL
MODEL       85
REMARK  Name = (2E)-3-[3,5-dihydroxy-2,2-dimethyl-4-(piperidin-1-yl)-3,4-dihydro-2H-1-benzopyran-6-yl]-1-(piperidin-1-yl)prop-2-en-1-one
REMARK  3 active torsions:
REMARK  status: ('A' for Active; 'I' for Inactive)
REMARK    1  A    between atoms: C_2  and  N_8
REMARK    2  A    between atoms: C_9  and  C_11
REMARK    3  A    between atoms: C_12  and  C_13
REMARK                            x       y       z     vdW  Elec       q    Type
REMARK                         _______ _______ _______ _____ _____    ______ ____
ROOT
ATOM      1  C   UNL     1       1.233  -0.881   0.000  0.00  0.00    +0.068 A 
ATOM      2  C   UNL     1       0.377  -0.368   0.000  0.00  0.00    +0.196 A 
ATOM      3  O   UNL     1       0.345   0.640   0.000  0.00  0.00    -0.287 OA
ATOM      4  C   UNL     1      -0.472  -0.881   0.000  0.00  0.00    +0.039 A 
ATOM      5  C   UNL     1      -0.472  -1.889   0.000  0.00  0.00    +0.006 A 
ATOM      6  C   UNL     1       0.377  -2.402   0.000  0.00  0.00    +0.037 A 
ATOM      7  C   UNL     1       1.233  -1.889   0.000  0.00  0.00    +0.139 A 
ATOM      8  O   UNL     1       2.114  -2.402   0.000  0.00  0.00    -0.480 OA
ATOM      9  C   UNL     1       2.963  -1.889   0.000  0.00  0.00    +0.163 C 
ATOM     10  C   UNL     1       2.963  -0.881   0.000  0.00  0.00    +0.207 C 
ATOM     11  O   UNL     1       3.819  -0.336   0.000  0.00  0.00    -0.218 OA
ATOM     12  C   UNL     1       3.604  -2.675   0.000  0.00  0.00    +0.046 C 
ATOM     13  C   UNL     1       3.971  -1.857   0.000  0.00  0.00    +0.046 C 
ATOM     14  C   UNL     1       2.114  -0.368   0.000  0.00  0.00    +0.121 C 
ENDROOT
BRANCH  14  15
ATOM     15  N   UNL     1       2.114   0.640   0.000  0.00  0.00    -0.268 NA
ATOM     16  C   UNL     1       2.963   1.128   0.000  0.00  0.00    +0.072 C 
ATOM     17  C   UNL     1       2.963   2.130   0.000  0.00  0.00    +0.017 C 
ATOM     18  C   UNL     1       2.114   2.618   0.000  0.00  0.00    +0.003 C 
ATOM     19  C   UNL     1       1.265   2.130   0.000  0.00  0.00    +0.017 C 
ATOM     20  C   UNL     1       1.265   1.128   0.000  0.00  0.00    +0.072 C 
ENDBRANCH  14  15
BRANCH   4  21
ATOM     21  C   UNL     1      -1.353  -0.336   0.000  0.00  0.00    +0.008 C 
ATOM     22  C   UNL     1      -2.235  -0.824   0.000  0.00  0.00    +0.058 C 
BRANCH  22  23
ATOM     23  C   UNL     1      -3.090  -0.304   0.000  0.00  0.00    +0.249 C 
ATOM     24  O   UNL     1      -3.971  -0.792   0.000  0.00  0.00    -0.270 OA
ATOM     25  N   UNL     1      -3.078   0.685   0.000  0.00  0.00    -0.276 N 
ATOM     26  C   UNL     1      -3.914   1.217   0.000  0.00  0.00    +0.094 C 
ATOM     27  C   UNL     1      -3.864   2.219   0.000  0.00  0.00    +0.022 C 
ATOM     28  C   UNL     1      -2.982   2.675   0.000  0.00  0.00    +0.004 C 
ATOM     29  C   UNL     1      -2.158   2.149   0.000  0.00  0.00    +0.022 C 
ATOM     30  C   UNL     1      -2.209   1.141   0.000  0.00  0.00    +0.094 C 
ENDBRANCH  22  23
ENDBRANCH   4  21
TORSDOF 3
ENDMDL
MODEL       86
REMARK  Name = 3a,5a-dihydroxy-7-[(4-methoxy-6-methyl-5-{[3,4,5-trihydroxy-6-({[3,4,5-trihydroxy-6-(hydroxymethyl)oxan-2-yl]oxy}methyl)oxan-2-yl]oxy}oxan-2-yl)oxy]-11a-methyl-1-(5-oxo-2,5-dihydrofuran-3-yl)-hexadeca hydro-1H-cyclopenta[a]phenanthrene-9a-carbaldehyde
REMARK  11 active torsions:
REMARK  status: ('A' for Active; 'I' for Inactive)
REMARK    1  A    between atoms: C_2  and  C_41
REMARK    2  A    between atoms: C_4  and  O_17
REMARK    3  A    between atoms: C_12  and  O_38
REMARK    4  A    between atoms: C_15  and  C_18
REMARK    5  A    between atoms: C_16  and  O_17
REMARK    6  A    between atoms: C_21  and  C_42
REMARK    7  A    between atoms: C_22  and  C_58
REMARK    8  A    between atoms: C_23  and  O_43
REMARK    9  A    between atoms: C_27  and  O_57
REMARK   10  A    between atoms: O_38  and  C_42
REMARK   11  A    between atoms: O_43  and  C_44
REMARK                            x       y       z     vdW  Elec       q    Type
REMARK                         _______ _______ _______ _____ _____    ______ ____
ROOT
ATOM      1  C   UNL     1       1.829  -1.488   0.000  0.00  0.00    +0.238 C 
ATOM      2  C   UNL     1       1.189  -2.279   0.000  0.00  0.00    +0.093 C 
ATOM      3  C   UNL     1      -0.048  -2.279   0.000  0.00  0.00    +0.150 C 
ATOM      4  C   UNL     1      -0.660  -1.488   0.000  0.00  0.00    +0.172 C 
ATOM      5  C   UNL     1      -0.048  -0.643   0.000  0.00  0.00    +0.147 C 
ATOM      6  C   UNL     1      -0.048   0.231   0.000  0.00  0.00    +0.035 C 
ATOM      7  O   UNL     1       1.189  -0.643   0.000  0.00  0.00    -0.330 OA
ENDROOT
BRANCH   3   8
ATOM      8  O   UNL     1      -0.048  -3.200   0.000  0.00  0.00    -0.351 OA
ATOM      9  C   UNL     1       0.825  -3.729   0.000  0.00  0.00    +0.174 C 
ENDBRANCH   3   8
BRANCH   1  10
ATOM     10  O   UNL     1       1.829  -0.464   0.000  0.00  0.00    -0.333 OA
BRANCH  10  23
ATOM     11  C   UNL     1       5.754   1.069   0.000  0.00  0.00    +0.123 C 
ATOM     12  O   UNL     1       5.754   0.065   0.000  0.00  0.00    -0.226 OA
ATOM     13  C   UNL     1       6.469   0.856   0.000  0.00  0.00    +0.030 C 
ATOM     14  C   UNL     1       6.881   1.454   0.000  0.00  0.00    +0.007 C 
ATOM     15  C   UNL     1       6.469   2.045   0.000  0.00  0.00    +0.024 C 
ATOM     16  C   UNL     1       5.094   0.712   0.000  0.00  0.00    +0.038 C 
ATOM     17  C   UNL     1       5.094  -0.052   0.000  0.00  0.00    +0.001 C 
ATOM     18  C   UNL     1       4.455  -0.416   0.000  0.00  0.00    +0.031 C 
ATOM     19  C   UNL     1       3.774  -0.052   0.000  0.00  0.00    +0.135 C 
ATOM     20  C   UNL     1       3.774   0.712   0.000  0.00  0.00    +0.081 C 
ATOM     21  C   UNL     1       3.100   1.069   0.000  0.00  0.00    +0.012 C 
ATOM     22  C   UNL     1       2.510   0.712   0.000  0.00  0.00    +0.030 C 
ATOM     23  C   UNL     1       2.510  -0.052   0.000  0.00  0.00    +0.120 C 
ATOM     24  O   UNL     1       3.774  -1.021   0.000  0.00  0.00    -0.225 OA
ATOM     25  C   UNL     1       3.100  -0.416   0.000  0.00  0.00    +0.060 C 
ATOM     26  C   UNL     1       4.455   1.069   0.000  0.00  0.00    +0.021 C 
ATOM     27  C   UNL     1       4.455   1.846   0.000  0.00  0.00    -0.004 C 
ATOM     28  C   UNL     1       5.094   2.224   0.000  0.00  0.00    +0.002 C 
ATOM     29  C   UNL     1       5.754   1.846   0.000  0.00  0.00    +0.029 C 
ATOM     30  C   UNL     1       5.754   2.836   0.000  0.00  0.00    +0.003 C 
BRANCH  15  31
ATOM     31  C   UNL     1       6.799   3.021   0.000  0.00  0.00    +0.005 C 
ATOM     32  C   UNL     1       7.769   3.331   0.000  0.00  0.00    +0.231 C 
ATOM     33  O   UNL     1       7.789   4.321   0.000  0.00  0.00    -0.441 OA
ATOM     34  C   UNL     1       6.813   4.651   0.000  0.00  0.00    +0.341 C 
ATOM     35  O   UNL     1       6.497   5.661   0.000  0.00  0.00    -0.245 OA
ATOM     36  C   UNL     1       6.201   3.791   0.000  0.00  0.00    +0.077 C 
ENDBRANCH  15  31
BRANCH  20  37
ATOM     37  C   UNL     1       3.774   1.454   0.000  0.00  0.00    +0.209 C 
ATOM     38  O   UNL     1       3.100   1.846   0.000  0.00  0.00    -0.288 OA
ENDBRANCH  20  37
ENDBRANCH  10  23
ENDBRANCH   1  10
BRANCH   4  39
ATOM     39  O   UNL     1      -0.660  -2.609   0.000  0.00  0.00    -0.326 OA
BRANCH  39  40
ATOM     40  C   UNL     1      -0.660  -3.613   0.000  0.00  0.00    +0.270 C 
ATOM     41  O   UNL     1      -1.368  -2.705   0.000  0.00  0.00    -0.326 OA
ATOM     42  C   UNL     1      -2.722  -2.705   0.000  0.00  0.00    +0.180 C 
ATOM     43  C   UNL     1      -3.382  -3.613   0.000  0.00  0.00    +0.214 C 
ATOM     44  C   UNL     1      -2.722  -4.472   0.000  0.00  0.00    +0.220 C 
ATOM     45  O   UNL     1      -2.722  -3.695   0.000  0.00  0.00    -0.217 OA
ATOM     46  O   UNL     1      -3.382  -4.623   0.000  0.00  0.00    -0.218 OA
ATOM     47  C   UNL     1      -1.368  -4.472   0.000  0.00  0.00    +0.241 C 
ATOM     48  O   UNL     1      -1.368  -5.263   0.000  0.00  0.00    -0.215 OA
BRANCH  42  49
ATOM     49  C   UNL     1      -2.743  -1.537   0.000  0.00  0.00    +0.177 C 
BRANCH  49  50
ATOM     50  O   UNL     1      -4.654  -1.537   0.000  0.00  0.00    -0.326 OA
BRANCH  50  51
ATOM     51  C   UNL     1      -4.654  -3.551   0.000  0.00  0.00    +0.270 C 
ATOM     52  O   UNL     1      -5.300  -2.561   0.000  0.00  0.00    -0.326 OA
ATOM     53  C   UNL     1      -6.799  -2.561   0.000  0.00  0.00    +0.183 C 
ATOM     54  C   UNL     1      -7.459  -3.551   0.000  0.00  0.00    +0.214 C 
ATOM     55  C   UNL     1      -6.799  -4.603   0.000  0.00  0.00    +0.220 C 
ATOM     56  O   UNL     1      -6.799  -3.517   0.000  0.00  0.00    -0.217 OA
ATOM     57  O   UNL     1      -7.459  -4.802   0.000  0.00  0.00    -0.218 OA
ATOM     58  C   UNL     1      -5.300  -4.603   0.000  0.00  0.00    +0.241 C 
ATOM     59  O   UNL     1      -5.300  -5.661   0.000  0.00  0.00    -0.215 OA
BRANCH  53  60
ATOM     60  C   UNL     1      -6.799  -1.537   0.000  0.00  0.00    +0.214 C 
ATOM     61  O   UNL     1      -7.789  -0.911   0.000  0.00  0.00    -0.218 OA
ENDBRANCH  53  60
ENDBRANCH  50  51
ENDBRANCH  49  50
ENDBRANCH  42  49
ENDBRANCH  39  40
ENDBRANCH   4  39
TORSDOF 11
ENDMDL
MODEL       87
REMARK  Name = 5-hydroxy-2,2-dimethyl-4-(morpholin-4-yl)-6-[(1E)-3-(morpholin-4-yl)-3-oxoprop-1-en-1-yl]-3,4-dihydro-2H-1-benzopyran-3-yl 3-methylbutanoate
REMARK  7 active torsions:
REMARK  status: ('A' for Active; 'I' for Inactive)
REMARK    1  A    between atoms: C_2  and  N_8
REMARK    2  A    between atoms: C_3  and  O_11
REMARK    3  A    between atoms: C_9  and  C_12
REMARK    4  A    between atoms: O_11  and  C_13
REMARK    5  A    between atoms: C_13  and  C_22
REMARK    6  A    between atoms: C_14  and  C_15
REMARK    7  A    between atoms: C_22  and  C_34
REMARK                            x       y       z     vdW  Elec       q    Type
REMARK                         _______ _______ _______ _____ _____    ______ ____
ROOT
ATOM      1  C   UNL     1       0.514  -0.884   0.000  0.00  0.00    +0.069 A 
ATOM      2  C   UNL     1      -0.336  -0.382   0.000  0.00  0.00    +0.196 A 
ATOM      3  O   UNL     1      -0.336   0.615   0.000  0.00  0.00    -0.287 OA
ATOM      4  C   UNL     1      -1.218  -0.884   0.000  0.00  0.00    +0.039 A 
ATOM      5  C   UNL     1      -1.218  -1.912   0.000  0.00  0.00    +0.006 A 
ATOM      6  C   UNL     1      -0.336  -2.413   0.000  0.00  0.00    +0.037 A 
ATOM      7  C   UNL     1       0.514  -1.912   0.000  0.00  0.00    +0.139 A 
ATOM      8  O   UNL     1       1.395  -2.413   0.000  0.00  0.00    -0.479 OA
ATOM      9  C   UNL     1       2.276  -1.912   0.000  0.00  0.00    +0.171 C 
ATOM     10  C   UNL     1       2.276  -0.884   0.000  0.00  0.00    +0.224 C 
ATOM     11  C   UNL     1       3.273  -1.826   0.000  0.00  0.00    +0.047 C 
ATOM     12  C   UNL     1       2.864  -2.732   0.000  0.00  0.00    +0.047 C 
ATOM     13  C   UNL     1       1.395  -0.382   0.000  0.00  0.00    +0.130 C 
ENDROOT
BRANCH  13  14
ATOM     14  N   UNL     1       1.364   0.615   0.000  0.00  0.00    -0.263 NA
ATOM     15  C   UNL     1       0.514   1.110   0.000  0.00  0.00    +0.105 C 
ATOM     16  C   UNL     1       0.514   2.114   0.000  0.00  0.00    +0.159 C 
ATOM     17  O   UNL     1       1.364   2.609   0.000  0.00  0.00    -0.351 OA
ATOM     18  C   UNL     1       2.276   2.114   0.000  0.00  0.00    +0.159 C 
ATOM     19  C   UNL     1       2.245   1.110   0.000  0.00  0.00    +0.105 C 
ENDBRANCH  13  14
BRANCH   4  20
ATOM     20  C   UNL     1      -2.099  -0.358   0.000  0.00  0.00    +0.008 C 
ATOM     21  C   UNL     1      -3.010  -0.854   0.000  0.00  0.00    +0.058 C 
BRANCH  21  22
ATOM     22  C   UNL     1      -3.861  -0.327   0.000  0.00  0.00    +0.249 C 
ATOM     23  O   UNL     1      -4.772  -0.798   0.000  0.00  0.00    -0.270 OA
ATOM     24  N   UNL     1      -3.836   0.670   0.000  0.00  0.00    -0.271 N 
ATOM     25  C   UNL     1      -2.955   1.172   0.000  0.00  0.00    +0.126 C 
ATOM     26  C   UNL     1      -2.925   2.169   0.000  0.00  0.00    +0.164 C 
ATOM     27  O   UNL     1      -3.775   2.701   0.000  0.00  0.00    -0.350 OA
ATOM     28  C   UNL     1      -4.656   2.200   0.000  0.00  0.00    +0.164 C 
ATOM     29  C   UNL     1      -4.687   1.202   0.000  0.00  0.00    +0.126 C 
ENDBRANCH  21  22
ENDBRANCH   4  20
BRANCH  10  30
ATOM     30  O   UNL     1       3.157  -0.358   0.000  0.00  0.00    -0.447 OA
BRANCH  30  31
ATOM     31  C   UNL     1       3.126   0.645   0.000  0.00  0.00    +0.317 C 
ATOM     32  O   UNL     1       2.551   0.994   0.000  0.00  0.00    -0.250 OA
BRANCH  31  33
ATOM     33  C   UNL     1       3.977   1.172   0.000  0.00  0.00    +0.110 C 
BRANCH  33  34
ATOM     34  C   UNL     1       3.946   2.200   0.000  0.00  0.00    +0.011 C 
ATOM     35  C   UNL     1       3.065   2.671   0.000  0.00  0.00    +0.001 C 
ATOM     36  C   UNL     1       4.772   2.732   0.000  0.00  0.00    +0.001 C 
ENDBRANCH  33  34
ENDBRANCH  31  33
ENDBRANCH  30  31
ENDBRANCH  10  30
TORSDOF 7
ENDMDL
MODEL       88
REMARK  Name = 9-(acetyloxy)-8,8-dimethyl-2-oxo-2H,8H,9H,10H-pyrano[2,3-h]chromen-10-yl 2,3-dimethyloxirane-2-carboxylate
REMARK  5 active torsions:
REMARK  status: ('A' for Active; 'I' for Inactive)
REMARK    1  A    between atoms: C_1  and  C_7
REMARK    2  A    between atoms: C_2  and  O_11
REMARK    3  A    between atoms: C_5  and  O_15
REMARK    4  A    between atoms: C_7  and  O_11
REMARK    5  A    between atoms: O_15  and  C_19
REMARK                            x       y       z     vdW  Elec       q    Type
REMARK                         _______ _______ _______ _____ _____    ______ ____
ROOT
ATOM      1  C   UNL     1      -0.952  -0.018   0.000  0.00  0.00    +0.240 C 
ATOM      2  C   UNL     1      -1.435  -0.889   0.000  0.00  0.00    +0.249 C 
ATOM      3  C   UNL     1      -2.442  -0.914   0.000  0.00  0.00    +0.174 C 
ATOM      4  C   UNL     1      -3.434  -0.995   0.000  0.00  0.00    +0.048 C 
ATOM      5  C   UNL     1      -1.903  -1.770   0.000  0.00  0.00    +0.048 C 
ATOM      6  O   UNL     1      -2.961  -0.063   0.000  0.00  0.00    -0.479 OA
ATOM      7  C   UNL     1      -2.467   0.818   0.000  0.00  0.00    +0.141 A 
ATOM      8  C   UNL     1      -2.976   1.679   0.000  0.00  0.00    +0.037 A 
ATOM      9  C   UNL     1      -2.493   2.555   0.000  0.00  0.00    +0.006 A 
ATOM     10  C   UNL     1      -1.490   2.586   0.000  0.00  0.00    +0.035 A 
ATOM     11  C   UNL     1      -0.997   3.447   0.000  0.00  0.00    +0.010 A 
ATOM     12  C   UNL     1       0.005   3.482   0.000  0.00  0.00    +0.082 A 
ATOM     13  C   UNL     1       0.524   2.611   0.000  0.00  0.00    +0.346 A 
ATOM     14  O   UNL     1       1.526   2.626   0.000  0.00  0.00    -0.244 OA
ATOM     15  O   UNL     1       0.030   1.730   0.000  0.00  0.00    -0.421 OA
ATOM     16  C   UNL     1      -0.972   1.720   0.000  0.00  0.00    +0.151 A 
ATOM     17  C   UNL     1      -1.465   0.838   0.000  0.00  0.00    +0.090 A 
ENDROOT
BRANCH   1  18
ATOM     18  O   UNL     1       0.066  -0.018   0.000  0.00  0.00    -0.442 OA
BRANCH  18  19
ATOM     19  C   UNL     1       0.584  -0.884   0.000  0.00  0.00    +0.344 C 
ATOM     20  O   UNL     1       0.101  -1.730   0.000  0.00  0.00    -0.247 OA
BRANCH  19  21
ATOM     21  C   UNL     1       1.576  -0.889   0.000  0.00  0.00    +0.206 C 
ATOM     22  C   UNL     1       1.168   0.018   0.000  0.00  0.00    +0.044 C 
ATOM     23  C   UNL     1       2.568  -0.889   0.000  0.00  0.00    +0.151 C 
ATOM     24  C   UNL     1       3.434  -0.430   0.000  0.00  0.00    +0.035 C 
ATOM     25  O   UNL     1       1.959  -1.735   0.000  0.00  0.00    -0.345 OA
ENDBRANCH  19  21
ENDBRANCH  18  19
ENDBRANCH   1  18
BRANCH   2  26
ATOM     26  O   UNL     1      -0.916  -1.755   0.000  0.00  0.00    -0.444 OA
BRANCH  26  27
ATOM     27  C   UNL     1      -1.405  -2.611   0.000  0.00  0.00    +0.318 C 
ATOM     28  C   UNL     1      -0.886  -3.482   0.000  0.00  0.00    +0.121 C 
ATOM     29  O   UNL     1      -2.402  -2.636   0.000  0.00  0.00    -0.250 OA
ENDBRANCH  26  27
ENDBRANCH   2  26
TORSDOF 5
ENDMDL
MODEL       89
REMARK  Name = 12-ETHYLIDENE-6-HYDROXY-8,14-DIAZAPENTACYCLO[9.5.2.0^(1,9).0^(2,7).0^(14,17)]OCTADECA-2(7),3,5,9-TETRAENE-10-CARBALDEHYDE
REMARK  1 active torsions:
REMARK  status: ('A' for Active; 'I' for Inactive)
REMARK    1  A    between atoms: C_3  and  C_15
REMARK                            x       y       z     vdW  Elec       q    Type
REMARK                         _______ _______ _______ _____ _____    ______ ____
ROOT
ATOM      1  C   UNL     1      -0.371   0.629   0.000  0.00  0.00    +0.068 C 
ATOM      2  C   UNL     1      -1.004   1.266   0.000  0.00  0.00    +0.028 C 
ATOM      3  C   UNL     1      -0.566   2.029   0.000  0.00  0.00    +0.073 C 
ATOM      4  N   UNL     1       0.396   1.953   0.000  0.00  0.00    -0.270 NA
ATOM      5  C   UNL     1       1.941   2.003   0.000  0.00  0.00    +0.095 C 
ATOM      6  C   UNL     1       1.920  -0.708   0.000  0.00  0.00    -0.029 C 
ATOM      7  C   UNL     1       2.682  -0.254   0.000  0.00  0.00    -0.033 C 
ATOM      8  C   UNL     1       3.445  -0.696   0.000  0.00  0.00    +0.030 C 
ATOM      9  C   UNL     1       1.158  -0.258   0.000  0.00  0.00    +0.046 C 
ATOM     10  C   UNL     1       0.383  -0.696   0.000  0.00  0.00    +0.024 C 
ATOM     11  C   UNL     1       1.158   0.629   0.000  0.00  0.00    +0.025 C 
ATOM     12  C   UNL     1      -1.908   0.629   0.000  0.00  0.00    +0.002 A 
ATOM     13  C   UNL     1      -2.678   1.079   0.000  0.00  0.00    -0.002 A 
ATOM     14  C   UNL     1      -3.445   0.629   0.000  0.00  0.00    +0.003 A 
ATOM     15  C   UNL     1      -3.445  -0.254   0.000  0.00  0.00    +0.043 A 
ATOM     16  C   UNL     1      -2.678  -0.696   0.000  0.00  0.00    +0.210 A 
ATOM     17  O   UNL     1      -2.678  -1.583   0.000  0.00  0.00    -0.285 OA
ATOM     18  C   UNL     1      -1.916  -0.254   0.000  0.00  0.00    +0.105 A 
ATOM     19  N   UNL     1      -1.141  -0.696   0.000  0.00  0.00    -0.214 NA
ATOM     20  C   UNL     1       0.383   1.079   0.000  0.00  0.00    +0.067 C 
ATOM     21  C   UNL     1      -0.371  -0.254   0.000  0.00  0.00    +0.051 C 
ENDROOT
BRANCH  10  22
ATOM     22  C   UNL     1       0.383  -1.583   0.000  0.00  0.00    +0.257 C 
ATOM     23  O   UNL     1      -0.383  -2.020   0.000  0.00  0.00    -0.296 OA
ENDBRANCH  10  22
TORSDOF 1
ENDMDL
MODEL       90
REMARK  Name = 3a,5a-dihydroxy-11a-methyl-1-(5-oxo-2,5-dihydrofuran-3-yl)-7-[(3,4,5-trihydroxy-6-methyloxan-2-yl)oxy]-hexadecahydro-1H-cyclopenta[a]phenanthrene-9a-carbaldehyde
REMARK  4 active torsions:
REMARK  status: ('A' for Active; 'I' for Inactive)
REMARK    1  A    between atoms: C_2  and  C_28
REMARK    2  A    between atoms: C_4  and  O_22
REMARK    3  A    between atoms: C_11  and  C_12
REMARK    4  A    between atoms: O_22  and  C_29
REMARK                            x       y       z     vdW  Elec       q    Type
REMARK                         _______ _______ _______ _____ _____    ______ ____
ROOT
ATOM      1  C   UNL     1       2.797   0.240   0.000  0.00  0.00    +0.123 C 
ATOM      2  O   UNL     1       2.809  -0.728   0.000  0.00  0.00    -0.226 OA
ATOM      3  C   UNL     1       3.635  -0.045   0.000  0.00  0.00    +0.030 C 
ATOM      4  C   UNL     1       4.133   0.686   0.000  0.00  0.00    +0.007 C 
ATOM      5  C   UNL     1       3.635   1.411   0.000  0.00  0.00    +0.024 C 
ATOM      6  C   UNL     1       1.954  -0.229   0.000  0.00  0.00    +0.038 C 
ATOM      7  C   UNL     1       1.954  -1.143   0.000  0.00  0.00    +0.001 C 
ATOM      8  C   UNL     1       1.200  -1.571   0.000  0.00  0.00    +0.031 C 
ATOM      9  C   UNL     1       0.386  -1.143   0.000  0.00  0.00    +0.135 C 
ATOM     10  C   UNL     1       0.386  -0.229   0.000  0.00  0.00    +0.081 C 
ATOM     11  C   UNL     1      -0.428   0.240   0.000  0.00  0.00    +0.012 C 
ATOM     12  C   UNL     1      -1.194  -0.229   0.000  0.00  0.00    +0.030 C 
ATOM     13  C   UNL     1      -1.194  -1.143   0.000  0.00  0.00    +0.120 C 
ATOM     14  O   UNL     1       0.386  -2.366   0.000  0.00  0.00    -0.225 OA
ATOM     15  C   UNL     1      -0.428  -1.571   0.000  0.00  0.00    +0.060 C 
ATOM     16  C   UNL     1       1.200   0.240   0.000  0.00  0.00    +0.021 C 
ATOM     17  C   UNL     1       1.200   1.137   0.000  0.00  0.00    -0.004 C 
ATOM     18  C   UNL     1       1.954   1.624   0.000  0.00  0.00    +0.002 C 
ATOM     19  C   UNL     1       2.797   1.137   0.000  0.00  0.00    +0.029 C 
ATOM     20  C   UNL     1       2.809   2.010   0.000  0.00  0.00    +0.003 C 
ENDROOT
BRANCH   5  21
ATOM     21  C   UNL     1       4.009   2.254   0.000  0.00  0.00    +0.005 C 
ATOM     22  C   UNL     1       4.905   2.420   0.000  0.00  0.00    +0.231 C 
ATOM     23  O   UNL     1       5.030   3.335   0.000  0.00  0.00    -0.441 OA
ATOM     24  C   UNL     1       4.264   3.750   0.000  0.00  0.00    +0.341 C 
ATOM     25  O   UNL     1       3.920   4.873   0.000  0.00  0.00    -0.245 OA
ATOM     26  C   UNL     1       3.623   3.109   0.000  0.00  0.00    +0.077 C 
ENDBRANCH   5  21
BRANCH  10  27
ATOM     27  C   UNL     1       0.386   0.686   0.000  0.00  0.00    +0.209 C 
ATOM     28  O   UNL     1      -0.428   1.137   0.000  0.00  0.00    -0.288 OA
ENDBRANCH  10  27
BRANCH  13  29
ATOM     29  O   UNL     1      -1.977  -1.624   0.000  0.00  0.00    -0.331 OA
BRANCH  29  30
ATOM     30  C   UNL     1      -1.977  -2.877   0.000  0.00  0.00    +0.269 C 
ATOM     31  O   UNL     1      -2.791  -1.838   0.000  0.00  0.00    -0.328 OA
ATOM     32  C   UNL     1      -4.288  -1.838   0.000  0.00  0.00    +0.151 C 
ATOM     33  C   UNL     1      -4.258  -2.753   0.000  0.00  0.00    +0.035 C 
ATOM     34  C   UNL     1      -5.030  -2.877   0.000  0.00  0.00    +0.212 C 
ATOM     35  C   UNL     1      -4.288  -3.863   0.000  0.00  0.00    +0.220 C 
ATOM     36  O   UNL     1      -4.305  -4.849   0.000  0.00  0.00    -0.217 OA
ATOM     37  O   UNL     1      -5.030  -1.838   0.000  0.00  0.00    -0.218 OA
ATOM     38  C   UNL     1      -2.791  -3.863   0.000  0.00  0.00    +0.241 C 
ATOM     39  O   UNL     1      -2.791  -4.873   0.000  0.00  0.00    -0.215 OA
ENDBRANCH  29  30
ENDBRANCH  13  29
TORSDOF 4
ENDMDL
MODEL       91
REMARK  Name = 7-[(3,4-dihydroxy-6-methyl-5-{[3,4,5-trihydroxy-6-(hydroxymethyl)oxan-2-yl]oxy}oxan-2-yl)oxy]-3a,5a-dihydroxy-11a-methyl-1-(5-oxo-2,5-dihydrofuran-3-yl)-hexadecahydro-1H-cyclopenta[a]phenanthrene-9a-c arbaldehyde
REMARK  7 active torsions:
REMARK  status: ('A' for Active; 'I' for Inactive)
REMARK    1  A    between atoms: C_2  and  C_35
REMARK    2  A    between atoms: C_4  and  O_15
REMARK    3  A    between atoms: C_5  and  O_29
REMARK    4  A    between atoms: C_6  and  O_15
REMARK    5  A    between atoms: C_17  and  C_18
REMARK    6  A    between atoms: C_20  and  C_48
REMARK    7  A    between atoms: O_29  and  C_36
REMARK                            x       y       z     vdW  Elec       q    Type
REMARK                         _______ _______ _______ _____ _____    ______ ____
ROOT
ATOM      1  C   UNL     1       3.954  -0.022   0.000  0.00  0.00    +0.123 C 
ATOM      2  O   UNL     1       3.943  -1.056   0.000  0.00  0.00    -0.226 OA
ATOM      3  C   UNL     1       4.747  -0.290   0.000  0.00  0.00    +0.030 C 
ATOM      4  C   UNL     1       5.199   0.380   0.000  0.00  0.00    +0.007 C 
ATOM      5  C   UNL     1       4.747   1.033   0.000  0.00  0.00    +0.024 C 
ATOM      6  C   UNL     1       3.244  -0.480   0.000  0.00  0.00    +0.038 C 
ATOM      7  C   UNL     1       3.244  -1.284   0.000  0.00  0.00    +0.001 C 
ATOM      8  C   UNL     1       2.535  -1.698   0.000  0.00  0.00    +0.031 C 
ATOM      9  C   UNL     1       1.798  -1.284   0.000  0.00  0.00    +0.135 C 
ATOM     10  C   UNL     1       1.798  -0.480   0.000  0.00  0.00    +0.081 C 
ATOM     11  C   UNL     1       1.044  -0.022   0.000  0.00  0.00    +0.012 C 
ATOM     12  C   UNL     1       0.374  -0.480   0.000  0.00  0.00    +0.030 C 
ATOM     13  C   UNL     1       0.374  -1.284   0.000  0.00  0.00    +0.120 C 
ATOM     14  O   UNL     1       1.798  -2.385   0.000  0.00  0.00    -0.225 OA
ATOM     15  C   UNL     1       1.044  -1.698   0.000  0.00  0.00    +0.060 C 
ATOM     16  C   UNL     1       2.535  -0.022   0.000  0.00  0.00    +0.021 C 
ATOM     17  C   UNL     1       2.535   0.793   0.000  0.00  0.00    -0.004 C 
ATOM     18  C   UNL     1       3.244   1.206   0.000  0.00  0.00    +0.002 C 
ATOM     19  C   UNL     1       3.954   0.793   0.000  0.00  0.00    +0.029 C 
ATOM     20  C   UNL     1       3.943   1.759   0.000  0.00  0.00    +0.003 C 
ENDROOT
BRANCH   5  21
ATOM     21  C   UNL     1       5.093   1.960   0.000  0.00  0.00    +0.005 C 
ATOM     22  C   UNL     1       6.059   2.239   0.000  0.00  0.00    +0.231 C 
ATOM     23  O   UNL     1       6.070   3.217   0.000  0.00  0.00    -0.441 OA
ATOM     24  C   UNL     1       5.121   3.568   0.000  0.00  0.00    +0.341 C 
ATOM     25  O   UNL     1       4.842   4.557   0.000  0.00  0.00    -0.245 OA
ATOM     26  C   UNL     1       4.518   2.736   0.000  0.00  0.00    +0.077 C 
ENDBRANCH   5  21
BRANCH  10  27
ATOM     27  C   UNL     1       1.782   0.536   0.000  0.00  0.00    +0.209 C 
ATOM     28  O   UNL     1       0.910   1.022   0.000  0.00  0.00    -0.288 OA
ENDBRANCH  10  27
BRANCH  13  29
ATOM     29  O   UNL     1      -0.346  -1.726   0.000  0.00  0.00    -0.331 OA
BRANCH  29  30
ATOM     30  C   UNL     1      -0.346  -2.865   0.000  0.00  0.00    +0.269 C 
ATOM     31  O   UNL     1      -1.056  -1.943   0.000  0.00  0.00    -0.328 OA
ATOM     32  C   UNL     1      -2.396  -1.943   0.000  0.00  0.00    +0.148 C 
ATOM     33  C   UNL     1      -2.396  -2.692   0.000  0.00  0.00    +0.035 C 
ATOM     34  C   UNL     1      -3.111  -2.865   0.000  0.00  0.00    +0.178 C 
ATOM     35  C   UNL     1      -2.396  -3.753   0.000  0.00  0.00    +0.217 C 
ATOM     36  O   UNL     1      -2.396  -4.557   0.000  0.00  0.00    -0.218 OA
ATOM     37  C   UNL     1      -1.056  -3.753   0.000  0.00  0.00    +0.240 C 
ATOM     38  O   UNL     1      -1.056  -4.529   0.000  0.00  0.00    -0.215 OA
BRANCH  34  39
ATOM     39  O   UNL     1      -3.111  -1.323   0.000  0.00  0.00    -0.326 OA
BRANCH  39  40
ATOM     40  C   UNL     1      -3.111   0.419   0.000  0.00  0.00    +0.270 C 
ATOM     41  O   UNL     1      -3.887  -0.587   0.000  0.00  0.00    -0.326 OA
ATOM     42  C   UNL     1      -5.372  -0.587   0.000  0.00  0.00    +0.183 C 
ATOM     43  C   UNL     1      -6.070   0.419   0.000  0.00  0.00    +0.214 C 
ATOM     44  C   UNL     1      -5.372   1.385   0.000  0.00  0.00    +0.220 C 
ATOM     45  O   UNL     1      -5.372   0.447   0.000  0.00  0.00    -0.217 OA
ATOM     46  O   UNL     1      -6.070   1.826   0.000  0.00  0.00    -0.218 OA
ATOM     47  C   UNL     1      -3.887   1.385   0.000  0.00  0.00    +0.241 C 
ATOM     48  O   UNL     1      -3.887   2.256   0.000  0.00  0.00    -0.215 OA
BRANCH  42  49
ATOM     49  C   UNL     1      -5.372  -1.474   0.000  0.00  0.00    +0.214 C 
ATOM     50  O   UNL     1      -4.585  -1.966   0.000  0.00  0.00    -0.218 OA
ENDBRANCH  42  49
ENDBRANCH  39  40
ENDBRANCH  34  39
ENDBRANCH  29  30
ENDBRANCH  13  29
TORSDOF 7
ENDMDL
MODEL       92
REMARK  Name = (12E)-12-ETHYLIDENE-8,14-DIAZAPENTACYCLO[9.5.2.0^(1,9).0^(2,7).0^(14,17)]OCTADECA-2(7),3,5,9-TETRAENE-10-CARBALDEHYDE
REMARK  1 active torsions:
REMARK  status: ('A' for Active; 'I' for Inactive)
REMARK    1  A    between atoms: C_3  and  C_15
REMARK                            x       y       z     vdW  Elec       q    Type
REMARK                         _______ _______ _______ _____ _____    ______ ____
ROOT
ATOM      1  C   UNL     1      -0.476   0.445   0.000  0.00  0.00    +0.068 C 
ATOM      2  C   UNL     1      -1.254   0.914   0.000  0.00  0.00    +0.028 C 
ATOM      3  C   UNL     1      -1.035   1.826   0.000  0.00  0.00    +0.073 C 
ATOM      4  N   UNL     1      -0.144   1.885   0.000  0.00  0.00    -0.270 NA
ATOM      5  C   UNL     1       2.879   1.137   0.000  0.00  0.00    +0.095 C 
ATOM      6  C   UNL     1       2.502   0.246   0.000  0.00  0.00    -0.029 C 
ATOM      7  C   UNL     1       2.944  -0.525   0.000  0.00  0.00    -0.033 C 
ATOM      8  C   UNL     1       2.487  -1.300   0.000  0.00  0.00    +0.030 C 
ATOM      9  C   UNL     1       1.602   0.246   0.000  0.00  0.00    +0.047 C 
ATOM     10  C   UNL     1       0.961  -0.276   0.000  0.00  0.00    +0.035 C 
ATOM     11  C   UNL     1       1.148   1.051   0.000  0.00  0.00    +0.025 C 
ATOM     12  C   UNL     1      -1.361   0.166   0.000  0.00  0.00    -0.001 A 
ATOM     13  C   UNL     1      -2.166   0.638   0.000  0.00  0.00    -0.003 A 
ATOM     14  C   UNL     1      -2.944   0.166   0.000  0.00  0.00    -0.000 A 
ATOM     15  C   UNL     1      -2.944  -0.751   0.000  0.00  0.00    +0.001 A 
ATOM     16  C   UNL     1      -2.166  -1.223   0.000  0.00  0.00    +0.016 A 
ATOM     17  C   UNL     1      -1.361  -0.775   0.000  0.00  0.00    +0.066 A 
ATOM     18  N   UNL     1      -0.476  -1.051   0.000  0.00  0.00    -0.217 NA
ATOM     19  C   UNL     1       0.212   1.051   0.000  0.00  0.00    +0.067 C 
ATOM     20  C   UNL     1       0.049  -0.276   0.000  0.00  0.00    +0.052 C 
ENDROOT
BRANCH  10  21
ATOM     21  C   UNL     1       1.459  -1.051   0.000  0.00  0.00    +0.231 C 
ATOM     22  O   UNL     1       1.047  -1.885   0.000  0.00  0.00    -0.283 OA
ENDBRANCH  10  21
TORSDOF 1
ENDMDL
MODEL       93
REMARK  Name = 5-hydroxy-2,2-dimethyl-4-(morpholin-4-yl)-6-[(1E)-3-(morpholin-4-yl)-3-oxoprop-1-en-1-yl]-3,4-dihydro-2H-1-benzopyran-3-yl acetate
REMARK  5 active torsions:
REMARK  status: ('A' for Active; 'I' for Inactive)
REMARK    1  A    between atoms: C_2  and  N_8
REMARK    2  A    between atoms: C_3  and  O_12
REMARK    3  A    between atoms: C_9  and  C_11
REMARK    4  A    between atoms: O_12  and  C_15
REMARK    5  A    between atoms: C_13  and  C_14
REMARK                            x       y       z     vdW  Elec       q    Type
REMARK                         _______ _______ _______ _____ _____    ______ ____
ROOT
ATOM      1  C   UNL     1      -0.002  -1.558   0.000  0.00  0.00    +0.069 A 
ATOM      2  C   UNL     1      -0.860  -1.074   0.000  0.00  0.00    +0.196 A 
ATOM      3  O   UNL     1      -0.860  -0.057   0.000  0.00  0.00    -0.287 OA
ATOM      4  C   UNL     1      -1.726  -1.558   0.000  0.00  0.00    +0.039 A 
ATOM      5  C   UNL     1      -1.726  -2.559   0.000  0.00  0.00    +0.006 A 
ATOM      6  C   UNL     1      -0.860  -3.063   0.000  0.00  0.00    +0.037 A 
ATOM      7  C   UNL     1      -0.002  -2.559   0.000  0.00  0.00    +0.139 A 
ATOM      8  O   UNL     1       0.856  -3.063   0.000  0.00  0.00    -0.479 OA
ATOM      9  C   UNL     1       1.726  -2.559   0.000  0.00  0.00    +0.171 C 
ATOM     10  C   UNL     1       1.726  -1.558   0.000  0.00  0.00    +0.224 C 
ATOM     11  C   UNL     1       2.226  -3.437   0.000  0.00  0.00    +0.047 C 
ATOM     12  C   UNL     1       2.735  -2.559   0.000  0.00  0.00    +0.047 C 
ATOM     13  C   UNL     1       0.856  -1.074   0.000  0.00  0.00    +0.130 C 
ENDROOT
BRANCH  13  14
ATOM     14  N   UNL     1       0.856  -0.057   0.000  0.00  0.00    -0.263 NA
ATOM     15  C   UNL     1       1.726   0.448   0.000  0.00  0.00    +0.105 C 
ATOM     16  C   UNL     1       1.726   1.440   0.000  0.00  0.00    +0.159 C 
ATOM     17  O   UNL     1       0.856   1.953   0.000  0.00  0.00    -0.351 OA
ATOM     18  C   UNL     1      -0.002   1.440   0.000  0.00  0.00    +0.159 C 
ATOM     19  C   UNL     1      -0.002   0.448   0.000  0.00  0.00    +0.105 C 
ENDBRANCH  13  14
BRANCH   4  20
ATOM     20  C   UNL     1      -2.605  -1.074   0.000  0.00  0.00    +0.008 C 
ATOM     21  C   UNL     1      -2.605  -0.057   0.000  0.00  0.00    +0.058 C 
BRANCH  21  22
ATOM     22  C   UNL     1      -3.462   0.431   0.000  0.00  0.00    +0.249 C 
ATOM     23  O   UNL     1      -4.329  -0.057   0.000  0.00  0.00    -0.270 OA
ATOM     24  N   UNL     1      -3.462   1.440   0.000  0.00  0.00    -0.271 N 
ATOM     25  C   UNL     1      -2.605   1.932   0.000  0.00  0.00    +0.126 C 
ATOM     26  C   UNL     1      -2.605   2.941   0.000  0.00  0.00    +0.164 C 
ATOM     27  O   UNL     1      -3.462   3.437   0.000  0.00  0.00    -0.350 OA
ATOM     28  C   UNL     1      -4.329   2.941   0.000  0.00  0.00    +0.164 C 
ATOM     29  C   UNL     1      -4.329   1.932   0.000  0.00  0.00    +0.126 C 
ENDBRANCH  21  22
ENDBRANCH   4  20
BRANCH  10  30
ATOM     30  O   UNL     1       2.601  -1.074   0.000  0.00  0.00    -0.447 OA
BRANCH  30  31
ATOM     31  C   UNL     1       3.458  -1.558   0.000  0.00  0.00    +0.318 C 
ATOM     32  C   UNL     1       3.458  -2.567   0.000  0.00  0.00    +0.121 C 
ATOM     33  O   UNL     1       4.329  -1.074   0.000  0.00  0.00    -0.250 OA
ENDBRANCH  30  31
ENDBRANCH  10  30
TORSDOF 5
ENDMDL
MODEL       94
REMARK  Name = 1-{2,6-dioxabicyclo[3.2.0]heptan-3-yl}-5-methyl-1,2,3,4-tetrahydropyrimidine-2,4-dione
REMARK  1 active torsions:
REMARK  status: ('A' for Active; 'I' for Inactive)
REMARK    1  A    between atoms: N_1  and  C_4
REMARK                            x       y       z     vdW  Elec       q    Type
REMARK                         _______ _______ _______ _____ _____    ______ ____
ROOT
ATOM      1  N   UNL     1       0.229  -0.588   0.000  0.00  0.00    -0.256 N 
ATOM      2  C   UNL     1      -0.636  -0.085   0.000  0.00  0.00    +0.082 A 
ATOM      3  C   UNL     1      -0.636   0.954   0.000  0.00  0.00    +0.053 A 
ATOM      4  C   UNL     1      -1.505   1.524   0.000  0.00  0.00    +0.038 C 
ATOM      5  C   UNL     1       0.229   1.489   0.000  0.00  0.00    +0.280 A 
ATOM      6  N   UNL     1       1.133   0.986   0.000  0.00  0.00    -0.153 NA
ATOM      7  O   UNL     1       0.229   2.527   0.000  0.00  0.00    -0.265 OA
ATOM      8  C   UNL     1       1.133  -0.085   0.000  0.00  0.00    +0.354 A 
ATOM      9  O   UNL     1       2.026  -0.645   0.000  0.00  0.00    -0.244 OA
ENDROOT
BRANCH   1  10
ATOM     10  C   UNL     1      -0.271  -1.439   0.000  0.00  0.00    +0.211 C 
ATOM     11  C   UNL     1      -0.502  -2.467   0.000  0.00  0.00    +0.086 C 
ATOM     12  C   UNL     1      -1.505  -2.527   0.000  0.00  0.00    +0.149 C 
ATOM     13  C   UNL     1      -1.948  -1.592   0.000  0.00  0.00    +0.174 C 
ATOM     14  C   UNL     1      -2.026  -0.875   0.000  0.00  0.00    +0.174 C 
ATOM     15  O   UNL     1      -1.530  -1.737   0.000  0.00  0.00    -0.351 OA
ATOM     16  O   UNL     1      -1.147  -0.900   0.000  0.00  0.00    -0.333 OA
ENDBRANCH   1  10
TORSDOF 1
ENDMDL
MODEL       95
REMARK  Name = 4,8-dimethoxyfuro[2,3-b]quinoline
REMARK  2 active torsions:
REMARK  status: ('A' for Active; 'I' for Inactive)
REMARK    1  A    between atoms: C_4  and  O_11
REMARK    2  A    between atoms: C_10  and  O_13
REMARK                            x       y       z     vdW  Elec       q    Type
REMARK                         _______ _______ _______ _____ _____    ______ ____
ROOT
ATOM      1  N   UNL     1       0.099  -1.004   0.000  0.00  0.00    -0.208 NA
ATOM      2  C   UNL     1      -0.763  -0.500   0.000  0.00  0.00    +0.121 A 
ATOM      3  C   UNL     1      -1.621  -1.004   0.000  0.00  0.00    +0.156 A 
ATOM      4  C   UNL     1      -2.498  -0.500   0.000  0.00  0.00    +0.038 A 
ATOM      5  C   UNL     1      -2.498   0.500   0.000  0.00  0.00    +0.003 A 
ATOM      6  C   UNL     1      -1.621   1.004   0.000  0.00  0.00    +0.005 A 
ATOM      7  C   UNL     1      -0.763   0.500   0.000  0.00  0.00    +0.055 A 
ATOM      8  C   UNL     1       0.099   1.004   0.000  0.00  0.00    +0.145 A 
ATOM      9  C   UNL     1       0.976   0.500   0.000  0.00  0.00    +0.091 A 
ATOM     10  C   UNL     1       1.923   0.806   0.000  0.00  0.00    +0.048 A 
ATOM     11  C   UNL     1       2.498  -0.019   0.000  0.00  0.00    +0.182 A 
ATOM     12  O   UNL     1       1.923  -0.806   0.000  0.00  0.00    -0.433 OA
ATOM     13  C   UNL     1       0.976  -0.500   0.000  0.00  0.00    +0.233 A 
ENDROOT
BRANCH   3  14
ATOM     14  O   UNL     1      -1.621  -2.007   0.000  0.00  0.00    -0.470 OA
ATOM     15  C   UNL     1      -2.483  -2.507   0.000  0.00  0.00    +0.253 C 
ENDBRANCH   3  14
BRANCH   8  16
ATOM     16  O   UNL     1       0.099   2.007   0.000  0.00  0.00    -0.471 OA
ATOM     17  C   UNL     1      -0.763   2.507   0.000  0.00  0.00    +0.252 C 
ENDBRANCH   8  16
TORSDOF 2
ENDMDL
MODEL       96
REMARK  Name = 2-(6-methoxy-2-naphthyl)propanoic acid
REMARK  3 active torsions:
REMARK  status: ('A' for Active; 'I' for Inactive)
REMARK    1  A    between atoms: C_1  and  C_4
REMARK    2  A    between atoms: C_2  and  C_4
REMARK    3  A    between atoms: C_12  and  O_15
REMARK                            x       y       z     vdW  Elec       q    Type
REMARK                         _______ _______ _______ _____ _____    ______ ____
ROOT
ATOM      1  C   UNL     1       1.302   0.006   0.000  0.00  0.00    -0.012 A 
ATOM      2  C   UNL     1       1.302  -1.002   0.000  0.00  0.00    -0.004 A 
ATOM      3  C   UNL     1       0.440  -1.507   0.000  0.00  0.00    -0.000 A 
ATOM      4  C   UNL     1      -0.423  -1.006   0.000  0.00  0.00    +0.003 A 
ATOM      5  C   UNL     1      -0.423  -0.006   0.000  0.00  0.00    -0.000 A 
ATOM      6  C   UNL     1      -1.294   0.494   0.000  0.00  0.00    +0.003 A 
ATOM      7  C   UNL     1      -2.157  -0.006   0.000  0.00  0.00    +0.037 A 
ATOM      8  C   UNL     1      -2.157  -1.006   0.000  0.00  0.00    +0.139 A 
ATOM      9  C   UNL     1      -1.294  -1.507   0.000  0.00  0.00    +0.037 A 
ATOM     10  C   UNL     1       0.431   0.498   0.000  0.00  0.00    -0.004 A 
ENDROOT
BRANCH   8  11
ATOM     11  O   UNL     1      -3.032  -1.507   0.000  0.00  0.00    -0.471 OA
ATOM     12  C   UNL     1      -3.895  -1.006   0.000  0.00  0.00    +0.252 C 
ENDBRANCH   8  11
BRANCH   1  13
ATOM     13  C   UNL     1       2.165   0.506   0.000  0.00  0.00    +0.126 C 
ATOM     14  C   UNL     1       2.157   1.507   0.000  0.00  0.00    +0.017 C 
BRANCH  13  15
ATOM     15  C   UNL     1       3.033   0.019   0.000  0.00  0.00    +0.368 C 
ATOM     16  O   UNL     1       3.895   0.523   0.000  0.00  0.00    -0.245 OA
ATOM     17  O   UNL     1       3.041  -0.982   0.000  0.00  0.00    -0.245 OA
ENDBRANCH  13  15
ENDBRANCH   1  13
TORSDOF 3
ENDMDL
MODEL       97
REMARK  Name = 9-(acetyloxy)-8,8-dimethyl-2-oxo-2H,8H,9H,10H-pyrano[2,3-h]chromen-10-yl (2E)-2-methylbut-2-enoate
REMARK  5 active torsions:
REMARK  status: ('A' for Active; 'I' for Inactive)
REMARK    1  A    between atoms: C_2  and  O_8
REMARK    2  A    between atoms: C_4  and  O_13
REMARK    3  A    between atoms: O_8  and  C_10
REMARK    4  A    between atoms: C_10  and  C_15
REMARK    5  A    between atoms: O_13  and  C_17
REMARK                            x       y       z     vdW  Elec       q    Type
REMARK                         _______ _______ _______ _____ _____    ______ ____
ROOT
ATOM      1  C   UNL     1      -0.370   1.308   0.000  0.00  0.00    +0.090 A 
ATOM      2  C   UNL     1      -1.207   1.800   0.000  0.00  0.00    +0.141 A 
ATOM      3  C   UNL     1      -1.207   2.778   0.000  0.00  0.00    +0.037 A 
ATOM      4  C   UNL     1      -0.370   3.236   0.000  0.00  0.00    +0.006 A 
ATOM      5  C   UNL     1       0.444   2.778   0.000  0.00  0.00    +0.035 A 
ATOM      6  C   UNL     1       1.286   3.236   0.000  0.00  0.00    +0.010 A 
ATOM      7  C   UNL     1       2.122   2.778   0.000  0.00  0.00    +0.082 A 
ATOM      8  C   UNL     1       2.122   1.800   0.000  0.00  0.00    +0.346 A 
ATOM      9  O   UNL     1       2.970   1.308   0.000  0.00  0.00    -0.244 OA
ATOM     10  O   UNL     1       1.286   1.308   0.000  0.00  0.00    -0.421 OA
ATOM     11  O   UNL     1      -2.049   1.308   0.000  0.00  0.00    -0.479 OA
ATOM     12  C   UNL     1      -2.021   0.359   0.000  0.00  0.00    +0.174 C 
ATOM     13  C   UNL     1      -1.184  -0.099   0.000  0.00  0.00    +0.249 C 
ATOM     14  C   UNL     1      -2.970   0.579   0.000  0.00  0.00    +0.048 C 
ATOM     15  C   UNL     1      -2.834  -0.121   0.000  0.00  0.00    +0.048 C 
ATOM     16  C   UNL     1       0.444   1.800   0.000  0.00  0.00    +0.151 A 
ATOM     17  C   UNL     1      -0.370   0.359   0.000  0.00  0.00    +0.240 C 
ENDROOT
BRANCH  13  18
ATOM     18  O   UNL     1      -1.184  -1.071   0.000  0.00  0.00    -0.444 OA
BRANCH  18  19
ATOM     19  C   UNL     1      -2.021  -1.540   0.000  0.00  0.00    +0.318 C 
ATOM     20  C   UNL     1      -2.834  -1.071   0.000  0.00  0.00    +0.121 C 
ATOM     21  O   UNL     1      -2.021  -2.512   0.000  0.00  0.00    -0.250 OA
ENDBRANCH  18  19
ENDBRANCH  13  18
BRANCH  17  22
ATOM     22  O   UNL     1       0.472  -0.121   0.000  0.00  0.00    -0.441 OA
BRANCH  22  23
ATOM     23  C   UNL     1       0.472  -1.088   0.000  0.00  0.00    +0.337 C 
ATOM     24  O   UNL     1      -0.410  -1.540   0.000  0.00  0.00    -0.245 OA
BRANCH  23  25
ATOM     25  C   UNL     1       1.529  -1.676   0.000  0.00  0.00    +0.050 C 
ATOM     26  C   UNL     1       2.733  -1.116   0.000  0.00  0.00    +0.037 C 
ATOM     27  C   UNL     1       1.506  -2.812   0.000  0.00  0.00    -0.024 C 
ATOM     28  C   UNL     1       2.733  -3.236   0.000  0.00  0.00    +0.031 C 
ENDBRANCH  23  25
ENDBRANCH  22  23
ENDBRANCH  17  22
TORSDOF 5
ENDMDL
MODEL       98
REMARK  Name = 6,9a-dihydroxy-3,5a-dimethyl-9-methylidene-dodecahydronaphtho[1,2-b]furan-2-one
REMARK  0 active torsions:
REMARK  status: ('A' for Active; 'I' for Inactive)
REMARK                            x       y       z     vdW  Elec       q    Type
REMARK                         _______ _______ _______ _____ _____    ______ ____
ROOT
ATOM      1  C   UNL     1      -0.880   0.014   0.000  0.00  0.00    +0.180 C 
ATOM      2  O   UNL     1      -0.880  -1.003   0.000  0.00  0.00    -0.218 OA
ATOM      3  C   UNL     1      -1.717  -0.499   0.000  0.00  0.00    -0.014 C 
ATOM      4  C   UNL     1      -1.717  -1.497   0.000  0.00  0.00    -0.007 C 
ATOM      5  C   UNL     1      -2.586  -0.005   0.000  0.00  0.00    +0.027 C 
ATOM      6  C   UNL     1      -2.586   1.012   0.000  0.00  0.00    +0.037 C 
ATOM      7  C   UNL     1      -1.717   1.497   0.000  0.00  0.00    +0.155 C 
ATOM      8  O   UNL     1      -1.717   2.495   0.000  0.00  0.00    -0.223 OA
ATOM      9  C   UNL     1      -0.880   1.012   0.000  0.00  0.00    +0.061 C 
ATOM     10  C   UNL     1      -0.880   2.010   0.000  0.00  0.00    +0.005 C 
ATOM     11  C   UNL     1      -0.012   1.497   0.000  0.00  0.00    +0.005 C 
ATOM     12  C   UNL     1       0.853   1.012   0.000  0.00  0.00    +0.004 C 
ATOM     13  C   UNL     1       0.853  -0.005   0.000  0.00  0.00    +0.054 C 
ATOM     14  C   UNL     1       1.587  -0.698   0.000  0.00  0.00    +0.103 C 
ATOM     15  C   UNL     1       1.167  -1.585   0.000  0.00  0.00    +0.317 C 
ATOM     16  O   UNL     1       1.671  -2.495   0.000  0.00  0.00    -0.250 OA
ATOM     17  O   UNL     1       0.187  -1.474   0.000  0.00  0.00    -0.449 OA
ATOM     18  C   UNL     1       2.586  -0.541   0.000  0.00  0.00    +0.012 C 
ATOM     19  C   UNL     1      -0.012  -0.499   0.000  0.00  0.00    +0.200 C 
ENDROOT
TORSDOF 0
ENDMDL
MODEL       99
REMARK  Name = 4-hydroxy-1,2-dihydroquinolin-2-one
REMARK  0 active torsions:
REMARK  status: ('A' for Active; 'I' for Inactive)
REMARK                            x       y       z     vdW  Elec       q    Type
REMARK                         _______ _______ _______ _____ _____    ______ ____
ROOT
ATOM      1  C   UNL     1       1.293  -0.013   0.000  0.00  0.00    +0.104 A 
ATOM      2  C   UNL     1       1.293  -0.999   0.000  0.00  0.00    +0.283 A 
ATOM      3  O   UNL     1       2.177  -1.496   0.000  0.00  0.00    -0.265 OA
ATOM      4  N   UNL     1       0.423  -1.496   0.000  0.00  0.00    -0.208 NA
ATOM      5  C   UNL     1      -0.442  -1.007   0.000  0.00  0.00    +0.088 A 
ATOM      6  C   UNL     1      -0.442  -0.006   0.000  0.00  0.00    +0.057 A 
ATOM      7  C   UNL     1      -1.311   0.502   0.000  0.00  0.00    +0.005 A 
ATOM      8  C   UNL     1      -2.177  -0.013   0.000  0.00  0.00    +0.000 A 
ATOM      9  C   UNL     1      -2.177  -0.999   0.000  0.00  0.00    +0.002 A 
ATOM     10  C   UNL     1      -1.311  -1.496   0.000  0.00  0.00    +0.019 A 
ATOM     11  C   UNL     1       0.423   0.502   0.000  0.00  0.00    +0.202 A 
ATOM     12  O   UNL     1       0.423   1.496   0.000  0.00  0.00    -0.286 OA
ENDROOT
TORSDOF 0
ENDMDL
MODEL      100
REMARK  Name = 4,8-dimethoxy-2-oxo-1,2-dihydroquinoline-3-carboxylic acid
REMARK  3 active torsions:
REMARK  status: ('A' for Active; 'I' for Inactive)
REMARK    1  A    between atoms: C_1  and  C_7
REMARK    2  A    between atoms: C_2  and  O_11
REMARK    3  A    between atoms: C_9  and  O_14
REMARK                            x       y       z     vdW  Elec       q    Type
REMARK                         _______ _______ _______ _____ _____    ______ ____
ROOT
ATOM      1  C   UNL     1       0.895   0.513   0.000  0.00  0.00    +0.171 A 
ATOM      2  C   UNL     1       0.895  -0.497   0.000  0.00  0.00    +0.289 A 
ATOM      3  O   UNL     1       1.770  -1.026   0.000  0.00  0.00    -0.265 OA
ATOM      4  N   UNL     1       0.033  -0.988   0.000  0.00  0.00    -0.204 NA
ATOM      5  C   UNL     1      -0.842  -0.497   0.000  0.00  0.00    +0.121 A 
ATOM      6  C   UNL     1      -0.842   0.497   0.000  0.00  0.00    +0.055 A 
ATOM      7  C   UNL     1      -1.698   1.004   0.000  0.00  0.00    +0.005 A 
ATOM      8  C   UNL     1      -2.557   0.513   0.000  0.00  0.00    +0.003 A 
ATOM      9  C   UNL     1      -2.557  -0.497   0.000  0.00  0.00    +0.038 A 
ATOM     10  C   UNL     1      -1.698  -0.988   0.000  0.00  0.00    +0.156 A 
ATOM     11  C   UNL     1       0.033   1.004   0.000  0.00  0.00    +0.151 A 
ENDROOT
BRANCH   1  12
ATOM     12  C   UNL     1       1.739   1.036   0.000  0.00  0.00    +0.395 C 
ATOM     13  O   UNL     1       2.557   0.497   0.000  0.00  0.00    -0.240 OA
ATOM     14  O   UNL     1       1.733   2.062   0.000  0.00  0.00    -0.240 OA
ENDBRANCH   1  12
BRANCH  10  15
ATOM     15  O   UNL     1      -1.698  -2.008   0.000  0.00  0.00    -0.470 OA
ATOM     16  C   UNL     1      -0.842  -2.499   0.000  0.00  0.00    +0.253 C 
ENDBRANCH  10  15
BRANCH  11  17
ATOM     17  O   UNL     1       0.033   2.008   0.000  0.00  0.00    -0.471 OA
ATOM     18  C   UNL     1       0.895   2.499   0.000  0.00  0.00    +0.252 C 
ENDBRANCH  11  17
TORSDOF 3
ENDMDL
MODEL      101
REMARK  Name = 2-{1-hydroxy-9a,11a-dimethyl-7,10-dioxo-1H,2H,3H,3aH,3bH,4H,5H,7H,9aH,9bH,10H,11H,11aH-cyclopenta[a]phenanthren-1-yl}-2-oxoethyl acetate
REMARK  4 active torsions:
REMARK  status: ('A' for Active; 'I' for Inactive)
REMARK    1  A    between atoms: C_3  and  C_11
REMARK    2  A    between atoms: C_11  and  C_21
REMARK    3  A    between atoms: C_19  and  O_23
REMARK    4  A    between atoms: C_21  and  O_23
REMARK                            x       y       z     vdW  Elec       q    Type
REMARK                         _______ _______ _______ _____ _____    ______ ____
ROOT
ATOM      1  C   UNL     1       1.492  -0.192   0.000  0.00  0.00    +0.039 C 
ATOM      2  C   UNL     1       1.492   0.751   0.000  0.00  0.00    +0.003 C 
ATOM      3  C   UNL     1       0.628   0.283   0.000  0.00  0.00    +0.067 C 
ATOM      4  C   UNL     1      -0.260  -0.192   0.000  0.00  0.00    +0.151 C 
ATOM      5  O   UNL     1      -1.096   0.323   0.000  0.00  0.00    -0.296 OA
ATOM      6  C   UNL     1      -0.260  -1.199   0.000  0.00  0.00    +0.065 C 
ATOM      7  C   UNL     1       0.628  -1.702   0.000  0.00  0.00    +0.008 C 
ATOM      8  C   UNL     1       0.628  -2.712   0.000  0.00  0.00    +0.005 C 
ATOM      9  C   UNL     1      -0.260  -3.204   0.000  0.00  0.00    +0.022 C 
ATOM     10  C   UNL     1      -1.104  -2.712   0.000  0.00  0.00    -0.038 C 
ATOM     11  C   UNL     1      -1.972  -3.204   0.000  0.00  0.00    +0.034 C 
ATOM     12  C   UNL     1      -2.828  -2.712   0.000  0.00  0.00    +0.195 C 
ATOM     13  O   UNL     1      -3.672  -3.204   0.000  0.00  0.00    -0.287 OA
ATOM     14  C   UNL     1      -2.828  -1.702   0.000  0.00  0.00    +0.038 C 
ATOM     15  C   UNL     1      -1.972  -1.199   0.000  0.00  0.00    -0.019 C 
ATOM     16  C   UNL     1      -1.104  -1.702   0.000  0.00  0.00    +0.040 C 
ATOM     17  C   UNL     1      -1.104  -0.838   0.000  0.00  0.00    +0.009 C 
ATOM     18  C   UNL     1       1.492  -1.219   0.000  0.00  0.00    +0.004 C 
ATOM     19  C   UNL     1       2.443  -1.504   0.000  0.00  0.00    +0.003 C 
ATOM     20  C   UNL     1       3.006  -0.675   0.000  0.00  0.00    +0.038 C 
ATOM     21  C   UNL     1       2.416   0.085   0.000  0.00  0.00    +0.181 C 
ATOM     22  O   UNL     1       3.672   0.600   0.000  0.00  0.00    -0.218 OA
ENDROOT
BRANCH  21  23
ATOM     23  C   UNL     1       2.701   1.028   0.000  0.00  0.00    +0.222 C 
ATOM     24  O   UNL     1       3.672   1.227   0.000  0.00  0.00    -0.290 OA
BRANCH  23  25
ATOM     25  C   UNL     1       2.015   1.750   0.000  0.00  0.00    +0.275 C 
BRANCH  25  26
ATOM     26  O   UNL     1       1.044   1.532   0.000  0.00  0.00    -0.440 OA
BRANCH  26  27
ATOM     27  C   UNL     1       0.359   2.245   0.000  0.00  0.00    +0.318 C 
ATOM     28  C   UNL     1      -0.620   2.063   0.000  0.00  0.00    +0.121 C 
ATOM     29  O   UNL     1       0.561   3.204   0.000  0.00  0.00    -0.250 OA
ENDBRANCH  26  27
ENDBRANCH  25  26
ENDBRANCH  23  25
ENDBRANCH  21  23
TORSDOF 4
ENDMDL
MODEL      102
REMARK  Name = 1H,2H,3H,9H-pyrrolo[2,1-b]quinazoline
REMARK  0 active torsions:
REMARK  status: ('A' for Active; 'I' for Inactive)
REMARK                            x       y       z     vdW  Elec       q    Type
REMARK                         _______ _______ _______ _____ _____    ______ ____
ROOT
ATOM      1  N   UNL     1       0.106  -1.000   0.000  0.00  0.00    -0.045 NA
ATOM      2  C   UNL     1      -0.770  -0.501   0.000  0.00  0.00    +0.193 A 
ATOM      3  C   UNL     1      -1.636  -1.000   0.000  0.00  0.00    +0.046 A 
ATOM      4  C   UNL     1      -2.502  -0.501   0.000  0.00  0.00    +0.004 A 
ATOM      5  C   UNL     1      -2.502   0.491   0.000  0.00  0.00    +0.000 A 
ATOM      6  C   UNL     1      -1.636   1.000   0.000  0.00  0.00    +0.003 A 
ATOM      7  C   UNL     1      -0.770   0.499   0.000  0.00  0.00    +0.067 A 
ATOM      8  C   UNL     1       0.106   1.000   0.000  0.00  0.00    +0.233 C 
ATOM      9  N   UNL     1       0.972   0.491   0.000  0.00  0.00    -0.190 N 
ATOM     10  C   UNL     1       1.924   0.808   0.000  0.00  0.00    +0.203 C 
ATOM     11  C   UNL     1       2.502   0.010   0.000  0.00  0.00    +0.063 C 
ATOM     12  C   UNL     1       1.924  -0.808   0.000  0.00  0.00    +0.121 C 
ATOM     13  C   UNL     1       0.972  -0.501   0.000  0.00  0.00    +0.300 C 
ENDROOT
TORSDOF 0
ENDMDL
MODEL      103
REMARK  Name = 3a,5a,7-trihydroxy-11a-methyl-1-(5-oxo-2,5-dihydrofuran-3-yl)-hexadecahydro-1H-cyclopenta[a]phenanthrene-9a-carbaldehyde
REMARK  2 active torsions:
REMARK  status: ('A' for Active; 'I' for Inactive)
REMARK    1  A    between atoms: C_2  and  C_21
REMARK    2  A    between atoms: C_7  and  C_8
REMARK                            x       y       z     vdW  Elec       q    Type
REMARK                         _______ _______ _______ _____ _____    ______ ____
ROOT
ATOM      1  C   UNL     1       0.903  -0.688   0.000  0.00  0.00    +0.123 C 
ATOM      2  O   UNL     1       0.956  -1.731   0.000  0.00  0.00    -0.226 OA
ATOM      3  C   UNL     1       1.844  -0.974   0.000  0.00  0.00    +0.030 C 
ATOM      4  C   UNL     1       2.386  -0.176   0.000  0.00  0.00    +0.007 C 
ATOM      5  C   UNL     1       1.814   0.628   0.000  0.00  0.00    +0.024 C 
ATOM      6  C   UNL     1       0.045  -1.177   0.000  0.00  0.00    +0.038 C 
ATOM      7  C   UNL     1       0.045  -2.201   0.000  0.00  0.00    +0.001 C 
ATOM      8  C   UNL     1      -0.843  -2.720   0.000  0.00  0.00    +0.031 C 
ATOM      9  C   UNL     1      -1.701  -2.201   0.000  0.00  0.00    +0.135 C 
ATOM     10  C   UNL     1      -1.701  -1.200   0.000  0.00  0.00    +0.081 C 
ATOM     11  C   UNL     1      -2.559  -0.688   0.000  0.00  0.00    +0.012 C 
ATOM     12  C   UNL     1      -3.416  -1.177   0.000  0.00  0.00    +0.033 C 
ATOM     13  C   UNL     1      -3.416  -2.201   0.000  0.00  0.00    +0.154 C 
ATOM     14  O   UNL     1      -4.274  -2.749   0.000  0.00  0.00    -0.223 OA
ATOM     15  O   UNL     1      -1.701  -3.202   0.000  0.00  0.00    -0.225 OA
ATOM     16  C   UNL     1      -2.559  -2.720   0.000  0.00  0.00    +0.064 C 
ATOM     17  C   UNL     1      -0.843  -0.688   0.000  0.00  0.00    +0.021 C 
ATOM     18  C   UNL     1      -0.873   0.283   0.000  0.00  0.00    -0.004 C 
ATOM     19  C   UNL     1       0.015   0.801   0.000  0.00  0.00    +0.002 C 
ATOM     20  C   UNL     1       0.873   0.313   0.000  0.00  0.00    +0.029 C 
ATOM     21  C   UNL     1       0.783   1.284   0.000  0.00  0.00    +0.003 C 
ENDROOT
BRANCH   5  22
ATOM     22  C   UNL     1       2.499   1.343   0.000  0.00  0.00    +0.005 C 
ATOM     23  C   UNL     1       1.957   2.171   0.000  0.00  0.00    +0.231 C 
ATOM     24  O   UNL     1       2.559   2.946   0.000  0.00  0.00    -0.441 OA
ATOM     25  C   UNL     1       3.476   2.630   0.000  0.00  0.00    +0.341 C 
ATOM     26  O   UNL     1       4.274   3.202   0.000  0.00  0.00    -0.245 OA
ATOM     27  C   UNL     1       3.446   1.629   0.000  0.00  0.00    +0.077 C 
ENDBRANCH   5  22
BRANCH  10  28
ATOM     28  C   UNL     1      -1.671  -0.200   0.000  0.00  0.00    +0.209 C 
ATOM     29  O   UNL     1      -2.404   0.384   0.000  0.00  0.00    -0.288 OA
ENDBRANCH  10  28
TORSDOF 2
ENDMDL
MODEL      104
REMARK  Name = 7,15-DIAZATETRACYCLO[7.7.1.0^(2,7).0^(10,15)]HEPTADECAN-6-ONE
REMARK  0 active torsions:
REMARK  status: ('A' for Active; 'I' for Inactive)
REMARK                            x       y       z     vdW  Elec       q    Type
REMARK                         _______ _______ _______ _____ _____    ______ ____
ROOT
ATOM      1  N   UNL     1      -1.353  -0.227   0.000  0.00  0.00    -0.281 N 
ATOM      2  C   UNL     1      -2.223  -0.720   0.000  0.00  0.00    +0.226 C 
ATOM      3  C   UNL     1      -3.089  -0.227   0.000  0.00  0.00    +0.085 C 
ATOM      4  C   UNL     1      -3.089   0.756   0.000  0.00  0.00    +0.011 C 
ATOM      5  C   UNL     1      -2.223   1.244   0.000  0.00  0.00    +0.020 C 
ATOM      6  O   UNL     1      -2.228  -1.715   0.000  0.00  0.00    -0.275 OA
ATOM      7  C   UNL     1      -1.353   0.756   0.000  0.00  0.00    +0.077 C 
ATOM      8  C   UNL     1      -0.488   1.244   0.000  0.00  0.00    +0.034 C 
ATOM      9  C   UNL     1       0.378   0.756   0.000  0.00  0.00    +0.006 C 
ATOM     10  C   UNL     1       0.378  -0.227   0.000  0.00  0.00    +0.030 C 
ATOM     11  C   UNL     1       1.277   0.202   0.000  0.00  0.00    +0.076 C 
ATOM     12  N   UNL     1       1.348   1.197   0.000  0.00  0.00    -0.278 NA
ATOM     13  C   UNL     1       2.253   1.639   0.000  0.00  0.00    +0.072 C 
ATOM     14  C   UNL     1       3.089   1.075   0.000  0.00  0.00    +0.017 C 
ATOM     15  C   UNL     1       3.013   0.080   0.000  0.00  0.00    +0.002 C 
ATOM     16  C   UNL     1       2.101  -0.362   0.000  0.00  0.00    +0.011 C 
ATOM     17  C   UNL     1       0.382   1.715   0.000  0.00  0.00    +0.073 C 
ATOM     18  C   UNL     1      -0.488  -0.720   0.000  0.00  0.00    +0.094 C 
ENDROOT
TORSDOF 0
ENDMDL
MODEL      105
REMARK  Name = 5-hydroxy-6-methoxy-2-(4-methoxyphenyl)-7-[(3,4,5-trihydroxy-6-{[(3,4,5-trihydroxy-6-methyloxan-2-yl)oxy]methyl}oxan-2-yl)oxy]-4H-chromen-4-one
REMARK  8 active torsions:
REMARK  status: ('A' for Active; 'I' for Inactive)
REMARK    1  A    between atoms: C_2  and  O_22
REMARK    2  A    between atoms: C_8  and  C_25
REMARK    3  A    between atoms: C_13  and  O_22
REMARK    4  A    between atoms: C_14  and  O_36
REMARK    5  A    between atoms: C_15  and  O_24
REMARK    6  A    between atoms: C_19  and  C_27
REMARK    7  A    between atoms: O_24  and  C_27
REMARK    8  A    between atoms: C_38  and  O_41
REMARK                            x       y       z     vdW  Elec       q    Type
REMARK                         _______ _______ _______ _____ _____    ______ ____
ROOT
ATOM      1  C   UNL     1       2.082  -1.114   0.000  0.00  0.00    +0.116 A 
ATOM      2  C   UNL     1       2.082  -0.239   0.000  0.00  0.00    +0.155 A 
ATOM      3  C   UNL     1       1.313   0.221   0.000  0.00  0.00    +0.078 A 
ATOM      4  C   UNL     1       0.544  -0.239   0.000  0.00  0.00    +0.181 A 
ATOM      5  C   UNL     1       0.544  -1.114   0.000  0.00  0.00    +0.212 A 
ATOM      6  O   UNL     1       2.851   0.221   0.000  0.00  0.00    -0.453 OA
ATOM      7  C   UNL     1       3.630  -0.239   0.000  0.00  0.00    +0.148 A 
ATOM      8  C   UNL     1       3.630  -1.114   0.000  0.00  0.00    +0.080 A 
ATOM      9  C   UNL     1       1.313  -1.568   0.000  0.00  0.00    +0.238 A 
ATOM     10  O   UNL     1       1.313  -2.444   0.000  0.00  0.00    -0.283 OA
ATOM     11  C   UNL     1       2.851  -1.568   0.000  0.00  0.00    +0.205 A 
ATOM     12  O   UNL     1       2.851  -2.444   0.000  0.00  0.00    -0.286 OA
ENDROOT
BRANCH   7  13
ATOM     13  C   UNL     1       4.371   0.221   0.000  0.00  0.00    +0.035 A 
ATOM     14  C   UNL     1       4.371   1.108   0.000  0.00  0.00    +0.006 A 
ATOM     15  C   UNL     1       5.140   1.551   0.000  0.00  0.00    +0.037 A 
ATOM     16  C   UNL     1       5.920   1.108   0.000  0.00  0.00    +0.139 A 
ATOM     17  C   UNL     1       5.920   0.221   0.000  0.00  0.00    +0.037 A 
ATOM     18  C   UNL     1       5.140  -0.239   0.000  0.00  0.00    +0.006 A 
BRANCH  16  19
ATOM     19  O   UNL     1       6.672   1.551   0.000  0.00  0.00    -0.471 OA
ATOM     20  C   UNL     1       6.672   2.444   0.000  0.00  0.00    +0.252 C 
ENDBRANCH  16  19
ENDBRANCH   7  13
BRANCH   5  21
ATOM     21  O   UNL     1      -0.224  -1.546   0.000  0.00  0.00    -0.465 OA
ATOM     22  C   UNL     1      -0.224  -2.433   0.000  0.00  0.00    +0.253 C 
ENDBRANCH   5  21
BRANCH   4  23
ATOM     23  O   UNL     1      -0.561   0.423   0.000  0.00  0.00    -0.447 OA
BRANCH  23  24
ATOM     24  C   UNL     1      -0.561  -0.267   0.000  0.00  0.00    +0.322 C 
ATOM     25  O   UNL     1      -1.313   0.760   0.000  0.00  0.00    -0.316 OA
ATOM     26  C   UNL     1      -2.738   0.760   0.000  0.00  0.00    +0.181 C 
ATOM     27  C   UNL     1      -3.507  -0.267   0.000  0.00  0.00    +0.214 C 
ATOM     28  C   UNL     1      -2.738  -1.220   0.000  0.00  0.00    +0.221 C 
ATOM     29  O   UNL     1      -2.755  -0.239   0.000  0.00  0.00    -0.217 OA
ATOM     30  O   UNL     1      -3.507  -1.260   0.000  0.00  0.00    -0.218 OA
ATOM     31  C   UNL     1      -1.313  -1.220   0.000  0.00  0.00    +0.254 C 
ATOM     32  O   UNL     1      -1.313  -2.001   0.000  0.00  0.00    -0.213 OA
BRANCH  26  33
ATOM     33  C   UNL     1      -2.738   1.394   0.000  0.00  0.00    +0.177 C 
BRANCH  33  34
ATOM     34  O   UNL     1      -3.698   1.821   0.000  0.00  0.00    -0.326 OA
BRANCH  34  35
ATOM     35  C   UNL     1      -3.698   1.147   0.000  0.00  0.00    +0.269 C 
ATOM     36  O   UNL     1      -4.466   2.174   0.000  0.00  0.00    -0.328 OA
ATOM     37  C   UNL     1      -5.909   2.174   0.000  0.00  0.00    +0.151 C 
ATOM     38  C   UNL     1      -5.892   1.232   0.000  0.00  0.00    +0.035 C 
ATOM     39  C   UNL     1      -6.672   1.147   0.000  0.00  0.00    +0.212 C 
ATOM     40  C   UNL     1      -5.909   0.166   0.000  0.00  0.00    +0.220 C 
ATOM     41  O   UNL     1      -5.920  -0.788   0.000  0.00  0.00    -0.217 OA
ATOM     42  O   UNL     1      -6.672   2.051   0.000  0.00  0.00    -0.218 OA
ATOM     43  C   UNL     1      -4.466   0.166   0.000  0.00  0.00    +0.241 C 
ATOM     44  O   UNL     1      -4.466  -0.845   0.000  0.00  0.00    -0.215 OA
ENDBRANCH  34  35
ENDBRANCH  33  34
ENDBRANCH  26  33
ENDBRANCH  23  24
ENDBRANCH   4  23
TORSDOF 8
ENDMDL
MODEL      106
REMARK  Name = 9-methoxy-7H-furo[3,2-g]chromen-7-one
REMARK  1 active torsions:
REMARK  status: ('A' for Active; 'I' for Inactive)
REMARK    1  A    between atoms: C_2  and  O_15
REMARK                            x       y       z     vdW  Elec       q    Type
REMARK                         _______ _______ _______ _____ _____    ______ ____
ROOT
ATOM      1  C   UNL     1       0.366   0.211   0.000  0.00  0.00    +0.185 A 
ATOM      2  C   UNL     1       0.366   1.221   0.000  0.00  0.00    +0.038 A 
ATOM      3  C   UNL     1      -0.530   1.722   0.000  0.00  0.00    +0.006 A 
ATOM      4  C   UNL     1      -1.409   1.221   0.000  0.00  0.00    +0.041 A 
ATOM      5  C   UNL     1      -1.409   0.211   0.000  0.00  0.00    +0.182 A 
ATOM      6  O   UNL     1      -2.394  -0.081   0.000  0.00  0.00    -0.447 OA
ATOM      7  C   UNL     1      -2.948   0.717   0.000  0.00  0.00    +0.180 A 
ATOM      8  C   UNL     1      -2.366   1.539   0.000  0.00  0.00    +0.044 A 
ATOM      9  C   UNL     1       1.250   1.722   0.000  0.00  0.00    +0.010 A 
ATOM     10  C   UNL     1       2.093   1.221   0.000  0.00  0.00    +0.082 A 
ATOM     11  C   UNL     1       2.093   0.211   0.000  0.00  0.00    +0.346 A 
ATOM     12  O   UNL     1       2.948  -0.273   0.000  0.00  0.00    -0.244 OA
ATOM     13  O   UNL     1       1.250  -0.273   0.000  0.00  0.00    -0.418 OA
ATOM     14  C   UNL     1      -0.530  -0.273   0.000  0.00  0.00    +0.207 A 
ENDROOT
BRANCH  14  15
ATOM     15  O   UNL     1      -0.537  -1.249   0.000  0.00  0.00    -0.465 OA
ATOM     16  C   UNL     1      -1.373  -1.722   0.000  0.00  0.00    +0.253 C 
ENDBRANCH  14  15
TORSDOF 1
ENDMDL
MODEL      107
REMARK  Name = 1-{7-hydroxy-9a,11a-dimethyl-hexadecahydro-1H-cyclopenta[a]phenanthren-1-yl}ethan-1-one
REMARK  1 active torsions:
REMARK  status: ('A' for Active; 'I' for Inactive)
REMARK    1  A    between atoms: C_6  and  C_14
REMARK                            x       y       z     vdW  Elec       q    Type
REMARK                         _______ _______ _______ _____ _____    ______ ____
ROOT
ATOM      1  C   UNL     1       1.475   0.680   0.000  0.00  0.00    +0.007 C 
ATOM      2  C   UNL     1       1.475   1.707   0.000  0.00  0.00    +0.000 C 
ATOM      3  C   UNL     1       0.599   1.180   0.000  0.00  0.00    +0.000 C 
ATOM      4  C   UNL     1      -0.276   0.680   0.000  0.00  0.00    +0.000 C 
ATOM      5  C   UNL     1      -0.276  -0.321   0.000  0.00  0.00    -0.000 C 
ATOM      6  C   UNL     1       0.625  -0.821   0.000  0.00  0.00    -0.000 C 
ATOM      7  C   UNL     1       0.625  -1.821   0.000  0.00  0.00    -0.000 C 
ATOM      8  C   UNL     1      -0.276  -2.322   0.000  0.00  0.00    -0.004 C 
ATOM      9  C   UNL     1      -1.126  -1.821   0.000  0.00  0.00    +0.015 C 
ATOM     10  C   UNL     1      -2.001  -2.322   0.000  0.00  0.00    +0.029 C 
ATOM     11  C   UNL     1      -2.877  -1.821   0.000  0.00  0.00    +0.152 C 
ATOM     12  O   UNL     1      -3.752  -2.348   0.000  0.00  0.00    -0.223 OA
ATOM     13  C   UNL     1      -2.877  -0.821   0.000  0.00  0.00    +0.033 C 
ATOM     14  C   UNL     1      -2.001  -0.321   0.000  0.00  0.00    +0.002 C 
ATOM     15  C   UNL     1      -1.126  -0.821   0.000  0.00  0.00    -0.003 C 
ATOM     16  C   UNL     1      -1.126   0.180   0.000  0.00  0.00    -0.000 C 
ATOM     17  C   UNL     1       2.429   0.982   0.000  0.00  0.00    +0.058 C 
ATOM     18  C   UNL     1       3.002   0.206   0.000  0.00  0.00    +0.007 C 
ATOM     19  C   UNL     1       2.429  -0.623   0.000  0.00  0.00    +0.000 C 
ATOM     20  C   UNL     1       1.475  -0.321   0.000  0.00  0.00    +0.000 C 
ENDROOT
BRANCH  17  21
ATOM     21  C   UNL     1       2.778   1.931   0.000  0.00  0.00    +0.151 C 
ATOM     22  C   UNL     1       2.126   2.707   0.000  0.00  0.00    +0.072 C 
ATOM     23  O   UNL     1       3.752   2.129   0.000  0.00  0.00    -0.296 OA
ENDBRANCH  17  21
TORSDOF 1
ENDMDL
MODEL      108
REMARK  Name = 8,8-dimethyl-2H,8H,9H,10H-pyrano[2,3-h]chromene-2,9-dione
REMARK  0 active torsions:
REMARK  status: ('A' for Active; 'I' for Inactive)
REMARK                            x       y       z     vdW  Elec       q    Type
REMARK                         _______ _______ _______ _____ _____    ______ ____
ROOT
ATOM      1  C   UNL     1      -0.385   0.238   0.000  0.00  0.00    +0.054 A 
ATOM      2  C   UNL     1      -0.385  -0.749   0.000  0.00  0.00    +0.101 C 
ATOM      3  C   UNL     1      -1.230  -1.225   0.000  0.00  0.00    +0.191 C 
ATOM      4  O   UNL     1      -1.230  -2.240   0.000  0.00  0.00    -0.292 OA
ATOM      5  C   UNL     1      -2.100  -0.749   0.000  0.00  0.00    +0.184 C 
ATOM      6  O   UNL     1      -2.129   0.238   0.000  0.00  0.00    -0.476 OA
ATOM      7  C   UNL     1      -3.086  -0.520   0.000  0.00  0.00    +0.051 C 
ATOM      8  C   UNL     1      -2.945  -1.254   0.000  0.00  0.00    +0.051 C 
ATOM      9  C   UNL     1      -1.254   0.749   0.000  0.00  0.00    +0.138 A 
ATOM     10  C   UNL     1      -1.254   1.765   0.000  0.00  0.00    +0.037 A 
ATOM     11  C   UNL     1      -0.385   2.240   0.000  0.00  0.00    +0.006 A 
ATOM     12  C   UNL     1       0.461   1.765   0.000  0.00  0.00    +0.035 A 
ATOM     13  C   UNL     1       1.336   2.240   0.000  0.00  0.00    +0.010 A 
ATOM     14  C   UNL     1       2.211   1.765   0.000  0.00  0.00    +0.082 A 
ATOM     15  C   UNL     1       2.211   0.749   0.000  0.00  0.00    +0.346 A 
ATOM     16  O   UNL     1       3.086   0.238   0.000  0.00  0.00    -0.244 OA
ATOM     17  O   UNL     1       1.336   0.238   0.000  0.00  0.00    -0.421 OA
ATOM     18  C   UNL     1       0.461   0.749   0.000  0.00  0.00    +0.148 A 
ENDROOT
TORSDOF 0
ENDMDL
MODEL      109
REMARK  Name = (2E)-3-(4,7-dimethoxy-1-benzofuran-6-yl)-1-(piperidin-1-yl)prop-2-en-1-one
REMARK  4 active torsions:
REMARK  status: ('A' for Active; 'I' for Inactive)
REMARK    1  A    between atoms: C_3  and  O_15
REMARK    2  A    between atoms: C_4  and  C_9
REMARK    3  A    between atoms: C_5  and  C_8
REMARK    4  A    between atoms: C_6  and  O_16
REMARK                            x       y       z     vdW  Elec       q    Type
REMARK                         _______ _______ _______ _____ _____    ______ ____
ROOT
ATOM      1  C   UNL     1      -1.290  -1.702   0.000  0.00  0.00    +0.182 A 
ATOM      2  O   UNL     1      -1.490  -2.687   0.000  0.00  0.00    -0.447 OA
ATOM      3  C   UNL     1      -2.474  -2.775   0.000  0.00  0.00    +0.180 A 
ATOM      4  C   UNL     1      -2.899  -1.903   0.000  0.00  0.00    +0.047 A 
ATOM      5  C   UNL     1      -0.436  -1.208   0.000  0.00  0.00    +0.173 A 
ATOM      6  C   UNL     1      -0.436  -0.224   0.000  0.00  0.00    +0.040 A 
ATOM      7  C   UNL     1      -1.313   0.289   0.000  0.00  0.00    +0.040 A 
ATOM      8  C   UNL     1      -2.162  -0.224   0.000  0.00  0.00    +0.142 A 
ATOM      9  C   UNL     1      -2.162  -1.208   0.000  0.00  0.00    +0.075 A 
ENDROOT
BRANCH   5  10
ATOM     10  O   UNL     1       0.478  -1.679   0.000  0.00  0.00    -0.468 OA
ATOM     11  C   UNL     1       0.501  -2.687   0.000  0.00  0.00    +0.253 C 
ENDBRANCH   5  10
BRANCH   8  12
ATOM     12  O   UNL     1      -3.034   0.312   0.000  0.00  0.00    -0.471 OA
ATOM     13  C   UNL     1      -3.906  -0.201   0.000  0.00  0.00    +0.252 C 
ENDBRANCH   8  12
BRANCH   6  14
ATOM     14  C   UNL     1       0.460   0.289   0.000  0.00  0.00    +0.008 C 
ATOM     15  C   UNL     1       0.460   1.278   0.000  0.00  0.00    +0.058 C 
BRANCH  15  16
ATOM     16  C   UNL     1       1.332   1.768   0.000  0.00  0.00    +0.249 C 
ATOM     17  O   UNL     1       1.332   2.775   0.000  0.00  0.00    -0.270 OA
ATOM     18  N   UNL     1       2.180   1.278   0.000  0.00  0.00    -0.276 N 
ATOM     19  C   UNL     1       3.053   1.791   0.000  0.00  0.00    +0.094 C 
ATOM     20  C   UNL     1       3.906   1.297   0.000  0.00  0.00    +0.022 C 
ATOM     21  C   UNL     1       3.906   0.289   0.000  0.00  0.00    +0.004 C 
ATOM     22  C   UNL     1       3.053  -0.201   0.000  0.00  0.00    +0.022 C 
ATOM     23  C   UNL     1       2.180   0.289   0.000  0.00  0.00    +0.094 C 
ENDBRANCH  15  16
ENDBRANCH   6  14
TORSDOF 4
ENDMDL
MODEL      110
REMARK  Name = 9-hydroxy-9,12,16b-trimethyl-3-{[3,4,5-trihydroxy-6-(hydroxymethyl)tetrahydro-2H-pyran-2-yl]oxy}docosahydrobenzo[4,5]indeno[1,2-h]pyrido[1,2-b]isoquinolin-5(1H)-one
REMARK  3 active torsions:
REMARK  status: ('A' for Active; 'I' for Inactive)
REMARK    1  A    between atoms: C_7  and  O_25
REMARK    2  A    between atoms: C_20  and  C_40
REMARK    3  A    between atoms: O_25  and  C_30
REMARK                            x       y       z     vdW  Elec       q    Type
REMARK                         _______ _______ _______ _____ _____    ______ ____
ROOT
ATOM      1  N   UNL     1       3.647   3.188   0.000  0.00  0.00    -0.272 NA
ATOM      2  C   UNL     1       3.264   4.018   0.000  0.00  0.00    +0.072 C 
ATOM      3  C   UNL     1       3.783   4.784   0.000  0.00  0.00    +0.016 C 
ATOM      4  C   UNL     1       3.495   5.654   0.000  0.00  0.00    +0.001 C 
ATOM      5  C   UNL     1       4.684   4.712   0.000  0.00  0.00    +0.003 C 
ATOM      6  C   UNL     1       5.091   3.866   0.000  0.00  0.00    +0.019 C 
ATOM      7  C   UNL     1       3.136   2.446   0.000  0.00  0.00    +0.072 C 
ATOM      8  C   UNL     1       3.527   1.600   0.000  0.00  0.00    +0.018 C 
ATOM      9  C   UNL     1       4.445   1.552   0.000  0.00  0.00    +0.031 C 
ATOM     10  C   UNL     1       4.956   2.294   0.000  0.00  0.00    +0.140 C 
ATOM     11  C   UNL     1       5.817   1.887   0.000  0.00  0.00    +0.034 C 
ATOM     12  O   UNL     1       5.849   2.837   0.000  0.00  0.00    -0.224 OA
ATOM     13  C   UNL     1       4.812   0.706   0.000  0.00  0.00    +0.003 C 
ATOM     14  C   UNL     1       4.301  -0.044   0.000  0.00  0.00    +0.000 C 
ATOM     15  C   UNL     1       3.408   0.044   0.000  0.00  0.00    +0.000 C 
ATOM     16  C   UNL     1       2.697  -0.587   0.000  0.00  0.00    +0.007 C 
ATOM     17  C   UNL     1       1.915  -0.132   0.000  0.00  0.00    +0.001 C 
ATOM     18  C   UNL     1       2.123   0.786   0.000  0.00  0.00    +0.000 C 
ATOM     19  C   UNL     1       1.117  -0.587   0.000  0.00  0.00    +0.007 C 
ATOM     20  C   UNL     1       1.013   0.722   0.000  0.00  0.00    +0.000 C 
ATOM     21  C   UNL     1       0.335  -0.132   0.000  0.00  0.00    +0.003 C 
ATOM     22  C   UNL     1      -0.463  -0.587   0.000  0.00  0.00    +0.030 C 
ATOM     23  C   UNL     1      -0.463  -1.520   0.000  0.00  0.00    +0.118 C 
ATOM     24  C   UNL     1       0.335  -1.983   0.000  0.00  0.00    +0.037 C 
ATOM     25  C   UNL     1       1.117  -1.520   0.000  0.00  0.00    +0.060 C 
ATOM     26  C   UNL     1       1.915  -1.983   0.000  0.00  0.00    +0.150 C 
ATOM     27  O   UNL     1       1.899  -2.709   0.000  0.00  0.00    -0.296 OA
ATOM     28  C   UNL     1       2.697  -1.520   0.000  0.00  0.00    +0.064 C 
ATOM     29  C   UNL     1       3.001   0.850   0.000  0.00  0.00    +0.001 C 
ATOM     30  C   UNL     1       4.565   3.124   0.000  0.00  0.00    +0.086 C 
ENDROOT
BRANCH  23  31
ATOM     31  O   UNL     1      -1.038  -2.214   0.000  0.00  0.00    -0.331 OA
BRANCH  31  32
ATOM     32  C   UNL     1      -1.915  -2.286   0.000  0.00  0.00    +0.269 C 
ATOM     33  O   UNL     1      -3.001  -1.656   0.000  0.00  0.00    -0.326 OA
ATOM     34  C   UNL     1      -3.926  -2.590   0.000  0.00  0.00    +0.183 C 
ATOM     35  C   UNL     1      -3.695  -4.098   0.000  0.00  0.00    +0.214 C 
ATOM     36  C   UNL     1      -2.570  -4.720   0.000  0.00  0.00    +0.220 C 
ATOM     37  O   UNL     1      -2.202  -5.654   0.000  0.00  0.00    -0.217 OA
ATOM     38  O   UNL     1      -4.716  -4.465   0.000  0.00  0.00    -0.218 OA
ATOM     39  C   UNL     1      -1.684  -3.771   0.000  0.00  0.00    +0.241 C 
ATOM     40  O   UNL     1      -0.583  -4.098   0.000  0.00  0.00    -0.215 OA
BRANCH  34  41
ATOM     41  C   UNL     1      -4.629  -1.728   0.000  0.00  0.00    +0.214 C 
ATOM     42  O   UNL     1      -5.849  -1.688   0.000  0.00  0.00    -0.218 OA
ENDBRANCH  34  41
ENDBRANCH  31  32
ENDBRANCH  23  31
TORSDOF 3
ENDMDL
MODEL      111
REMARK  Name = 10-HYDROXY-6,10,23-TRIMETHYL-17-OXO-4-AZAHEXACYCLO[12.11.0.0^(2,11).0^(4,9).0^(15,24).0^(18,23)]PENTACOSAN-20-YL ACETATE
REMARK  2 active torsions:
REMARK  status: ('A' for Active; 'I' for Inactive)
REMARK    1  A    between atoms: C_21  and  O_24
REMARK    2  A    between atoms: O_24  and  C_25
REMARK                            x       y       z     vdW  Elec       q    Type
REMARK                         _______ _______ _______ _____ _____    ______ ____
ROOT
ATOM      1  N   UNL     1       2.149   2.331   0.000  0.00  0.00    -0.277 NA
ATOM      2  C   UNL     1       1.697   3.312   0.000  0.00  0.00    +0.072 C 
ATOM      3  C   UNL     1       2.325   4.160   0.000  0.00  0.00    +0.016 C 
ATOM      4  C   UNL     1       1.917   5.141   0.000  0.00  0.00    +0.001 C 
ATOM      5  C   UNL     1       3.392   4.032   0.000  0.00  0.00    +0.002 C 
ATOM      6  C   UNL     1       3.818   3.081   0.000  0.00  0.00    +0.013 C 
ATOM      7  C   UNL     1       1.508   1.502   0.000  0.00  0.00    +0.067 C 
ATOM      8  C   UNL     1       1.960   0.533   0.000  0.00  0.00    +0.024 C 
ATOM      9  C   UNL     1       3.014   0.405   0.000  0.00  0.00    +0.039 C 
ATOM     10  C   UNL     1       3.629   1.283   0.000  0.00  0.00    +0.132 C 
ATOM     11  C   UNL     1       4.288   0.460   0.000  0.00  0.00    +0.034 C 
ATOM     12  O   UNL     1       4.477   1.941   0.000  0.00  0.00    -0.225 OA
ATOM     13  C   UNL     1       3.422  -0.521   0.000  0.00  0.00    -0.002 C 
ATOM     14  C   UNL     1       2.807  -1.381   0.000  0.00  0.00    -0.005 C 
ATOM     15  C   UNL     1       1.783  -1.277   0.000  0.00  0.00    +0.005 C 
ATOM     16  C   UNL     1       0.978  -1.996   0.000  0.00  0.00    +0.013 C 
ATOM     17  C   UNL     1       0.058  -1.472   0.000  0.00  0.00    +0.009 C 
ATOM     18  C   UNL     1       0.265  -0.430   0.000  0.00  0.00    -0.009 C 
ATOM     19  C   UNL     1      -0.863  -1.996   0.000  0.00  0.00    -0.001 C 
ATOM     20  C   UNL     1      -0.863  -0.942   0.000  0.00  0.00    -0.000 C 
ATOM     21  C   UNL     1      -1.770  -1.472   0.000  0.00  0.00    +0.004 C 
ATOM     22  C   UNL     1      -2.691  -1.996   0.000  0.00  0.00    +0.044 C 
ATOM     23  C   UNL     1      -2.691  -3.050   0.000  0.00  0.00    +0.169 C 
ATOM     24  C   UNL     1      -1.770  -3.593   0.000  0.00  0.00    +0.047 C 
ATOM     25  C   UNL     1      -0.863  -3.050   0.000  0.00  0.00    +0.075 C 
ATOM     26  C   UNL     1       0.058  -3.593   0.000  0.00  0.00    +0.146 C 
ATOM     27  O   UNL     1       0.058  -4.641   0.000  0.00  0.00    -0.296 OA
ATOM     28  C   UNL     1       0.978  -3.050   0.000  0.00  0.00    +0.060 C 
ATOM     29  C   UNL     1       1.332  -0.326   0.000  0.00  0.00    +0.006 C 
ATOM     30  C   UNL     1       3.203   2.234   0.000  0.00  0.00    +0.102 C 
ENDROOT
BRANCH  23  31
ATOM     31  O   UNL     1      -3.642  -3.593   0.000  0.00  0.00    -0.452 OA
BRANCH  31  32
ATOM     32  C   UNL     1      -3.642  -4.568   0.000  0.00  0.00    +0.317 C 
ATOM     33  C   UNL     1      -2.837  -5.141   0.000  0.00  0.00    +0.121 C 
ATOM     34  O   UNL     1      -4.477  -5.098   0.000  0.00  0.00    -0.250 OA
ENDBRANCH  31  32
ENDBRANCH  23  31
TORSDOF 2
ENDMDL
MODEL      112
REMARK  Name = 1,9a,11a-trimethyl-hexadecahydro-1H-cyclopenta[a]phenanthrene-1,7-diol
REMARK  0 active torsions:
REMARK  status: ('A' for Active; 'I' for Inactive)
REMARK                            x       y       z     vdW  Elec       q    Type
REMARK                         _______ _______ _______ _____ _____    ______ ____
ROOT
ATOM      1  C   UNL     1       1.616   1.127   0.000  0.00  0.00    +0.026 C 
ATOM      2  C   UNL     1       1.616   2.148   0.000  0.00  0.00    +0.002 C 
ATOM      3  C   UNL     1       0.731   1.650   0.000  0.00  0.00    +0.002 C 
ATOM      4  C   UNL     1      -0.140   1.127   0.000  0.00  0.00    +0.000 C 
ATOM      5  C   UNL     1      -0.140   0.131   0.000  0.00  0.00    -0.000 C 
ATOM      6  C   UNL     1       0.731  -0.348   0.000  0.00  0.00    +0.000 C 
ATOM      7  C   UNL     1       0.731  -1.403   0.000  0.00  0.00    -0.000 C 
ATOM      8  C   UNL     1      -0.140  -1.877   0.000  0.00  0.00    -0.004 C 
ATOM      9  C   UNL     1      -0.987  -1.403   0.000  0.00  0.00    +0.015 C 
ATOM     10  C   UNL     1      -1.858  -1.877   0.000  0.00  0.00    +0.029 C 
ATOM     11  C   UNL     1      -2.753  -1.403   0.000  0.00  0.00    +0.152 C 
ATOM     12  O   UNL     1      -3.624  -1.916   0.000  0.00  0.00    -0.223 OA
ATOM     13  C   UNL     1      -2.753  -0.348   0.000  0.00  0.00    +0.033 C 
ATOM     14  C   UNL     1      -1.858   0.131   0.000  0.00  0.00    +0.002 C 
ATOM     15  C   UNL     1      -0.987  -0.348   0.000  0.00  0.00    -0.003 C 
ATOM     16  C   UNL     1      -0.987   0.595   0.000  0.00  0.00    -0.000 C 
ATOM     17  C   UNL     1       2.530   1.418   0.000  0.00  0.00    +0.127 C 
ATOM     18  C   UNL     1       3.624   1.800   0.000  0.00  0.00    +0.033 C 
ATOM     19  O   UNL     1       2.530   2.322   0.000  0.00  0.00    -0.226 OA
ATOM     20  C   UNL     1       3.135   0.663   0.000  0.00  0.00    +0.030 C 
ATOM     21  C   UNL     1       2.564  -0.136   0.000  0.00  0.00    +0.003 C 
ATOM     22  C   UNL     1       1.616   0.131   0.000  0.00  0.00    +0.002 C 
ENDROOT
TORSDOF 0
ENDMDL
MODEL      113
REMARK  Name = 2-{1,10-dihydroxy-9a,11a-dimethyl-7-oxo-1H,2H,3H,3aH,3bH,4H,5H,7H,9aH,9bH,10H,11H,11aH-cyclopenta[a]phenanthren-1-yl}-2-oxoethyl acetate
REMARK  4 active torsions:
REMARK  status: ('A' for Active; 'I' for Inactive)
REMARK    1  A    between atoms: C_3  and  C_11
REMARK    2  A    between atoms: C_11  and  C_20
REMARK    3  A    between atoms: C_19  and  O_22
REMARK    4  A    between atoms: C_20  and  O_22
REMARK                            x       y       z     vdW  Elec       q    Type
REMARK                         _______ _______ _______ _____ _____    ______ ____
ROOT
ATOM      1  C   UNL     1       1.492  -0.192   0.000  0.00  0.00    +0.035 C 
ATOM      2  C   UNL     1       1.492   0.751   0.000  0.00  0.00    +0.003 C 
ATOM      3  C   UNL     1       0.628   0.283   0.000  0.00  0.00    +0.036 C 
ATOM      4  C   UNL     1      -0.260  -0.192   0.000  0.00  0.00    +0.153 C 
ATOM      5  O   UNL     1      -1.096   0.323   0.000  0.00  0.00    -0.223 OA
ATOM      6  C   UNL     1      -0.260  -1.199   0.000  0.00  0.00    +0.038 C 
ATOM      7  C   UNL     1       0.628  -1.702   0.000  0.00  0.00    +0.003 C 
ATOM      8  C   UNL     1       0.628  -2.712   0.000  0.00  0.00    +0.004 C 
ATOM      9  C   UNL     1      -0.260  -3.204   0.000  0.00  0.00    +0.022 C 
ATOM     10  C   UNL     1      -1.104  -2.712   0.000  0.00  0.00    -0.038 C 
ATOM     11  C   UNL     1      -1.972  -3.204   0.000  0.00  0.00    +0.034 C 
ATOM     12  C   UNL     1      -2.828  -2.712   0.000  0.00  0.00    +0.195 C 
ATOM     13  O   UNL     1      -3.672  -3.204   0.000  0.00  0.00    -0.287 OA
ATOM     14  C   UNL     1      -2.828  -1.702   0.000  0.00  0.00    +0.038 C 
ATOM     15  C   UNL     1      -1.972  -1.199   0.000  0.00  0.00    -0.020 C 
ATOM     16  C   UNL     1      -1.104  -1.702   0.000  0.00  0.00    +0.036 C 
ATOM     17  C   UNL     1      -1.104  -0.838   0.000  0.00  0.00    +0.009 C 
ATOM     18  C   UNL     1       1.492  -1.219   0.000  0.00  0.00    +0.003 C 
ATOM     19  C   UNL     1       2.443  -1.504   0.000  0.00  0.00    +0.003 C 
ATOM     20  C   UNL     1       3.006  -0.675   0.000  0.00  0.00    +0.038 C 
ATOM     21  C   UNL     1       2.416   0.085   0.000  0.00  0.00    +0.181 C 
ATOM     22  O   UNL     1       3.672   0.600   0.000  0.00  0.00    -0.218 OA
ENDROOT
BRANCH  21  23
ATOM     23  C   UNL     1       2.701   1.028   0.000  0.00  0.00    +0.222 C 
ATOM     24  O   UNL     1       3.672   1.227   0.000  0.00  0.00    -0.290 OA
BRANCH  23  25
ATOM     25  C   UNL     1       2.015   1.750   0.000  0.00  0.00    +0.275 C 
BRANCH  25  26
ATOM     26  O   UNL     1       1.044   1.532   0.000  0.00  0.00    -0.440 OA
BRANCH  26  27
ATOM     27  C   UNL     1       0.359   2.245   0.000  0.00  0.00    +0.318 C 
ATOM     28  C   UNL     1      -0.620   2.063   0.000  0.00  0.00    +0.121 C 
ATOM     29  O   UNL     1       0.561   3.204   0.000  0.00  0.00    -0.250 OA
ENDBRANCH  26  27
ENDBRANCH  25  26
ENDBRANCH  23  25
ENDBRANCH  21  23
TORSDOF 4
ENDMDL
MODEL      114
REMARK  Name = 4-{2,3a,7-trihydroxy-9a,11a-dimethyl-hexadecahydro-1H-cyclopenta[a]phenanthren-1-yl}-2,5-dihydrofuran-2-one
REMARK  1 active torsions:
REMARK  status: ('A' for Active; 'I' for Inactive)
REMARK    1  A    between atoms: C_4  and  C_6
REMARK                            x       y       z     vdW  Elec       q    Type
REMARK                         _______ _______ _______ _____ _____    ______ ____
ROOT
ATOM      1  C   UNL     1       0.112  -0.141   0.000  0.00  0.00    +0.126 C 
ATOM      2  O   UNL     1       0.123  -1.321   0.000  0.00  0.00    -0.226 OA
ATOM      3  C   UNL     1       0.880  -0.731   0.000  0.00  0.00    +0.063 C 
ATOM      4  C   UNL     1       1.705  -0.141   0.000  0.00  0.00    +0.158 C 
ATOM      5  C   UNL     1       1.705   0.771   0.000  0.00  0.00    +0.055 C 
ATOM      6  O   UNL     1       2.646  -0.651   0.000  0.00  0.00    -0.223 OA
ATOM      7  C   UNL     1      -0.685  -0.593   0.000  0.00  0.00    +0.038 C 
ATOM      8  C   UNL     1      -0.685  -1.499   0.000  0.00  0.00    -0.002 C 
ATOM      9  C   UNL     1      -1.482  -1.958   0.000  0.00  0.00    -0.004 C 
ATOM     10  C   UNL     1      -2.284  -1.499   0.000  0.00  0.00    +0.015 C 
ATOM     11  C   UNL     1      -2.284  -0.593   0.000  0.00  0.00    -0.007 C 
ATOM     12  C   UNL     1      -2.307   0.794   0.000  0.00  0.00    -0.001 C 
ATOM     13  C   UNL     1      -3.081  -0.141   0.000  0.00  0.00    +0.002 C 
ATOM     14  C   UNL     1      -3.878  -0.593   0.000  0.00  0.00    +0.033 C 
ATOM     15  C   UNL     1      -3.878  -1.499   0.000  0.00  0.00    +0.152 C 
ATOM     16  O   UNL     1      -4.830  -1.998   0.000  0.00  0.00    -0.223 OA
ATOM     17  C   UNL     1      -3.081  -1.958   0.000  0.00  0.00    +0.029 C 
ATOM     18  C   UNL     1      -1.482  -0.141   0.000  0.00  0.00    +0.011 C 
ATOM     19  C   UNL     1      -1.482   0.771   0.000  0.00  0.00    -0.004 C 
ATOM     20  C   UNL     1      -0.685   1.224   0.000  0.00  0.00    +0.002 C 
ATOM     21  C   UNL     1       0.112   0.771   0.000  0.00  0.00    +0.032 C 
ATOM     22  C   UNL     1       0.180   2.089   0.000  0.00  0.00    +0.003 C 
ENDROOT
BRANCH   5  23
ATOM     23  C   UNL     1       2.531   1.235   0.000  0.00  0.00    +0.008 C 
ATOM     24  C   UNL     1       2.531   2.021   0.000  0.00  0.00    +0.231 C 
ATOM     25  O   UNL     1       3.219   2.531   0.000  0.00  0.00    -0.441 OA
ATOM     26  C   UNL     1       3.953   2.049   0.000  0.00  0.00    +0.341 C 
ATOM     27  O   UNL     1       4.830   2.433   0.000  0.00  0.00    -0.245 OA
ATOM     28  C   UNL     1       3.964   1.252   0.000  0.00  0.00    +0.077 C 
ENDBRANCH   5  23
TORSDOF 1
ENDMDL
MODEL      115
REMARK  Name = 7-methoxy-8-(3-methylbut-2-en-1-yl)-2H-chromen-2-one
REMARK  3 active torsions:
REMARK  status: ('A' for Active; 'I' for Inactive)
REMARK    1  A    between atoms: C_2  and  C_5
REMARK    2  A    between atoms: C_5  and  C_9
REMARK    3  A    between atoms: C_10  and  O_15
REMARK                            x       y       z     vdW  Elec       q    Type
REMARK                         _______ _______ _______ _____ _____    ______ ____
ROOT
ATOM      1  C   UNL     1       0.414   0.991   0.000  0.00  0.00    +0.148 A 
ATOM      2  C   UNL     1       0.414   2.003   0.000  0.00  0.00    +0.035 A 
ATOM      3  C   UNL     1      -0.441   2.496   0.000  0.00  0.00    +0.006 A 
ATOM      4  C   UNL     1      -1.297   2.003   0.000  0.00  0.00    +0.037 A 
ATOM      5  C   UNL     1      -1.297   1.012   0.000  0.00  0.00    +0.138 A 
ATOM      6  C   UNL     1       1.302   2.496   0.000  0.00  0.00    +0.010 A 
ATOM      7  C   UNL     1       2.157   2.003   0.000  0.00  0.00    +0.082 A 
ATOM      8  C   UNL     1       2.157   1.012   0.000  0.00  0.00    +0.346 A 
ATOM      9  O   UNL     1       3.040   0.520   0.000  0.00  0.00    -0.244 OA
ATOM     10  O   UNL     1       1.302   0.493   0.000  0.00  0.00    -0.421 OA
ATOM     11  C   UNL     1      -0.441   0.493   0.000  0.00  0.00    +0.051 A 
ENDROOT
BRANCH   5  12
ATOM     12  O   UNL     1      -2.184   0.520   0.000  0.00  0.00    -0.472 OA
ATOM     13  C   UNL     1      -3.040   1.039   0.000  0.00  0.00    +0.252 C 
ENDBRANCH   5  12
BRANCH  11  14
ATOM     14  C   UNL     1      -0.441  -0.492   0.000  0.00  0.00    +0.058 C 
BRANCH  14  15
ATOM     15  C   UNL     1       0.414  -0.985   0.000  0.00  0.00    -0.030 C 
ATOM     16  C   UNL     1       0.414  -1.998   0.000  0.00  0.00    -0.048 C 
ATOM     17  C   UNL     1       1.302  -2.496   0.000  0.00  0.00    +0.026 C 
ATOM     18  C   UNL     1      -0.441  -2.496   0.000  0.00  0.00    +0.026 C 
ENDBRANCH  14  15
ENDBRANCH  11  14
TORSDOF 3
ENDMDL
MODEL      116
REMARK  Name = 4-{3a,7,11-trihydroxy-9a,11a-dimethyl-hexadecahydro-1H-cyclopenta[a]phenanthren-1-yl}-2,5-dihydrofuran-2-one
REMARK  1 active torsions:
REMARK  status: ('A' for Active; 'I' for Inactive)
REMARK    1  A    between atoms: C_6  and  C_8
REMARK                            x       y       z     vdW  Elec       q    Type
REMARK                         _______ _______ _______ _____ _____    ______ ____
ROOT
ATOM      1  C   UNL     1       0.112  -0.141   0.000  0.00  0.00    +0.125 C 
ATOM      2  O   UNL     1       0.123  -1.323   0.000  0.00  0.00    -0.226 OA
ATOM      3  C   UNL     1       0.881  -0.732   0.000  0.00  0.00    +0.031 C 
ATOM      4  C   UNL     1       1.707  -0.141   0.000  0.00  0.00    +0.007 C 
ATOM      5  C   UNL     1       1.707   0.772   0.000  0.00  0.00    +0.027 C 
ATOM      6  C   UNL     1      -0.686  -0.594   0.000  0.00  0.00    +0.038 C 
ATOM      7  C   UNL     1      -0.686  -1.501   0.000  0.00  0.00    -0.002 C 
ATOM      8  C   UNL     1      -1.483  -1.960   0.000  0.00  0.00    -0.004 C 
ATOM      9  C   UNL     1      -2.287  -1.501   0.000  0.00  0.00    +0.015 C 
ATOM     10  C   UNL     1      -2.287  -0.594   0.000  0.00  0.00    -0.007 C 
ATOM     11  C   UNL     1      -2.310   0.795   0.000  0.00  0.00    -0.001 C 
ATOM     12  C   UNL     1      -3.085  -0.141   0.000  0.00  0.00    +0.002 C 
ATOM     13  C   UNL     1      -3.882  -0.594   0.000  0.00  0.00    +0.033 C 
ATOM     14  C   UNL     1      -3.882  -1.501   0.000  0.00  0.00    +0.152 C 
ATOM     15  O   UNL     1      -4.835  -2.000   0.000  0.00  0.00    -0.223 OA
ATOM     16  C   UNL     1      -3.085  -1.960   0.000  0.00  0.00    +0.029 C 
ATOM     17  C   UNL     1      -1.483  -0.141   0.000  0.00  0.00    +0.014 C 
ATOM     18  C   UNL     1      -1.483   0.772   0.000  0.00  0.00    +0.029 C 
ATOM     19  C   UNL     1      -0.686   1.225   0.000  0.00  0.00    +0.154 C 
ATOM     20  O   UNL     1      -0.686   2.258   0.000  0.00  0.00    -0.223 OA
ATOM     21  C   UNL     1       0.112   0.772   0.000  0.00  0.00    +0.057 C 
ATOM     22  C   UNL     1       0.181   2.092   0.000  0.00  0.00    +0.005 C 
ENDROOT
BRANCH   5  23
ATOM     23  C   UNL     1       2.534   1.237   0.000  0.00  0.00    +0.005 C 
ATOM     24  C   UNL     1       2.534   2.023   0.000  0.00  0.00    +0.231 C 
ATOM     25  O   UNL     1       3.222   2.534   0.000  0.00  0.00    -0.441 OA
ATOM     26  C   UNL     1       3.957   2.052   0.000  0.00  0.00    +0.341 C 
ATOM     27  O   UNL     1       4.835   2.436   0.000  0.00  0.00    -0.245 OA
ATOM     28  C   UNL     1       3.968   1.254   0.000  0.00  0.00    +0.077 C 
ENDBRANCH   5  23
TORSDOF 1
ENDMDL
MODEL      117
REMARK  Name = 3,4,5-trihydroxy-6-(hydroxymethyl)oxan-2-yl 10-{[3,4-dihydroxy-6-(hydroxymethyl)-5-{[3,4,5-trihydroxy-6-(hydroxymethyl)oxan-2-yl]oxy}oxan-2-yl]oxy}-2,2,6a,6b,9,9,12a-heptamethyl-1,2,3,4,4a,5,6,6a,6b,7 ,8,8a,9,10,11,12,12a,12b,13,14b-icosahydropicene-4a-carboxylate
REMARK  10 active torsions:
REMARK  status: ('A' for Active; 'I' for Inactive)
REMARK    1  A    between atoms: C_4  and  C_16
REMARK    2  A    between atoms: C_6  and  O_23
REMARK    3  A    between atoms: C_7  and  O_25
REMARK    4  A    between atoms: C_9  and  O_32
REMARK    5  A    between atoms: C_10  and  O_23
REMARK    6  A    between atoms: C_16  and  O_25
REMARK    7  A    between atoms: C_28  and  C_57
REMARK    8  A    between atoms: C_30  and  C_58
REMARK    9  A    between atoms: C_31  and  C_59
REMARK   10  A    between atoms: O_32  and  C_33
REMARK                            x       y       z     vdW  Elec       q    Type
REMARK                         _______ _______ _______ _____ _____    ______ ____
ROOT
ATOM      1  C   UNL     1       1.897   2.001   0.000  0.00  0.00    +0.015 C 
ATOM      2  C   UNL     1       1.921   1.063   0.000  0.00  0.00    +0.004 C 
ATOM      3  C   UNL     1       2.747   1.504   0.000  0.00  0.00    +0.004 C 
ATOM      4  C   UNL     1       3.558   2.001   0.000  0.00  0.00    +0.011 C 
ATOM      5  C   UNL     1       3.558   2.948   0.000  0.00  0.00    +0.093 C 
ATOM      6  C   UNL     1       2.747   3.373   0.000  0.00  0.00    +0.028 C 
ATOM      7  C   UNL     1       2.747   4.352   0.000  0.00  0.00    +0.005 C 
ATOM      8  C   UNL     1       3.558   4.849   0.000  0.00  0.00    +0.000 C 
ATOM      9  C   UNL     1       4.384   4.392   0.000  0.00  0.00    +0.001 C 
ATOM     10  C   UNL     1       2.788   5.523   0.000  0.00  0.00    +0.000 C 
ATOM     11  C   UNL     1       4.207   5.467   0.000  0.00  0.00    +0.000 C 
ATOM     12  C   UNL     1       4.384   3.405   0.000  0.00  0.00    +0.011 C 
ATOM     13  C   UNL     1       1.111   1.504   0.000  0.00  0.00    +0.003 C 
ATOM     14  C   UNL     1       1.111   2.466   0.000  0.00  0.00    +0.000 C 
ATOM     15  C   UNL     1       1.111   0.581   0.000  0.00  0.00    +0.000 C 
ATOM     16  C   UNL     1       0.261   0.076   0.000  0.00  0.00    +0.000 C 
ATOM     17  C   UNL     1      -0.582   0.581   0.000  0.00  0.00    +0.002 C 
ATOM     18  C   UNL     1      -0.582   1.504   0.000  0.00  0.00    +0.000 C 
ATOM     19  C   UNL     1      -0.622   2.771   0.000  0.00  0.00    +0.000 C 
ATOM     20  C   UNL     1      -1.392   2.001   0.000  0.00  0.00    +0.003 C 
ATOM     21  C   UNL     1      -2.218   1.504   0.000  0.00  0.00    +0.030 C 
ATOM     22  C   UNL     1      -2.218   0.581   0.000  0.00  0.00    +0.117 C 
ATOM     23  C   UNL     1      -1.392   0.076   0.000  0.00  0.00    +0.025 C 
ATOM     24  C   UNL     1      -1.953  -0.670   0.000  0.00  0.00    +0.002 C 
ATOM     25  C   UNL     1      -1.007  -0.790   0.000  0.00  0.00    +0.002 C 
ATOM     26  C   UNL     1       0.261   2.001   0.000  0.00  0.00    +0.005 C 
ATOM     27  C   UNL     1       0.261   2.948   0.000  0.00  0.00    +0.025 C 
ATOM     28  C   UNL     1       1.111   3.373   0.000  0.00  0.00    -0.035 C 
ATOM     29  C   UNL     1       1.897   2.948   0.000  0.00  0.00    -0.049 C 
ENDROOT
BRANCH   5  30
ATOM     30  C   UNL     1       4.384   2.539   0.000  0.00  0.00    +0.318 C 
ATOM     31  O   UNL     1       4.384   1.576   0.000  0.00  0.00    -0.250 OA
BRANCH  30  32
ATOM     32  O   UNL     1       5.250   3.116   0.000  0.00  0.00    -0.431 OA
BRANCH  32  33
ATOM     33  C   UNL     1       6.654   3.566   0.000  0.00  0.00    +0.352 C 
ATOM     34  O   UNL     1       8.210   3.566   0.000  0.00  0.00    -0.330 OA
ATOM     35  C   UNL     1       9.045   2.483   0.000  0.00  0.00    +0.198 C 
ATOM     36  C   UNL     1       8.210   1.448   0.000  0.00  0.00    +0.223 C 
ATOM     37  C   UNL     1       6.654   1.448   0.000  0.00  0.00    +0.235 C 
ATOM     38  O   UNL     1       6.654   2.138   0.000  0.00  0.00    -0.225 OA
ATOM     39  O   UNL     1       8.210   0.846   0.000  0.00  0.00    -0.225 OA
ATOM     40  C   UNL     1       5.844   2.483   0.000  0.00  0.00    +0.237 C 
ATOM     41  O   UNL     1       5.844   1.272   0.000  0.00  0.00    -0.215 OA
BRANCH  35  42
ATOM     42  C   UNL     1       9.045   3.237   0.000  0.00  0.00    +0.207 C 
ATOM     43  O   UNL     1       9.943   3.525   0.000  0.00  0.00    -0.218 OA
ENDBRANCH  35  42
ENDBRANCH  32  33
ENDBRANCH  30  32
ENDBRANCH   5  30
BRANCH  22  44
ATOM     44  O   UNL     1      -3.566  -0.405   0.000  0.00  0.00    -0.338 OA
BRANCH  44  45
ATOM     45  C   UNL     1      -3.566  -1.753   0.000  0.00  0.00    +0.286 C 
ATOM     46  O   UNL     1      -4.376  -0.670   0.000  0.00  0.00    -0.339 OA
ATOM     47  C   UNL     1      -5.972  -0.670   0.000  0.00  0.00    +0.194 C 
ATOM     48  C   UNL     1      -6.742  -1.753   0.000  0.00  0.00    +0.188 C 
ATOM     49  C   UNL     1      -5.972  -2.732   0.000  0.00  0.00    +0.224 C 
ATOM     50  O   UNL     1      -5.972  -2.098   0.000  0.00  0.00    -0.225 OA
ATOM     51  C   UNL     1      -4.376  -2.732   0.000  0.00  0.00    +0.246 C 
ATOM     52  O   UNL     1      -4.376  -3.365   0.000  0.00  0.00    -0.223 OA
BRANCH  47  53
ATOM     53  C   UNL     1      -5.972  -0.036   0.000  0.00  0.00    +0.207 C 
ATOM     54  O   UNL     1      -6.742   0.461   0.000  0.00  0.00    -0.218 OA
ENDBRANCH  47  53
BRANCH  48  55
ATOM     55  O   UNL     1      -6.742  -2.852   0.000  0.00  0.00    -0.340 OA
BRANCH  55  56
ATOM     56  C   UNL     1      -6.742  -3.871   0.000  0.00  0.00    +0.286 C 
ATOM     57  O   UNL     1      -7.577  -2.852   0.000  0.00  0.00    -0.339 OA
ATOM     58  C   UNL     1      -9.077  -2.852   0.000  0.00  0.00    +0.197 C 
ATOM     59  C   UNL     1      -9.887  -3.871   0.000  0.00  0.00    +0.223 C 
ATOM     60  C   UNL     1      -9.077  -4.945   0.000  0.00  0.00    +0.227 C 
ATOM     61  O   UNL     1      -9.077  -4.272   0.000  0.00  0.00    -0.225 OA
ATOM     62  O   UNL     1      -9.943  -2.852   0.000  0.00  0.00    -0.225 OA
ATOM     63  C   UNL     1      -7.577  -4.906   0.000  0.00  0.00    +0.246 C 
ATOM     64  O   UNL     1      -7.577  -5.523   0.000  0.00  0.00    -0.223 OA
BRANCH  58  65
ATOM     65  C   UNL     1      -9.077  -2.178   0.000  0.00  0.00    +0.207 C 
ATOM     66  O   UNL     1      -9.943  -1.697   0.000  0.00  0.00    -0.218 OA
ENDBRANCH  58  65
ENDBRANCH  55  56
ENDBRANCH  48  55
ENDBRANCH  44  45
ENDBRANCH  22  44
TORSDOF 10
ENDMDL
MODEL      118
REMARK  Name = 1-acetyl-9a,11a-dimethyl-1H,2H,3H,3aH,3bH,4H,6H,7H,8H,9H,9aH,9bH,10H,11H,11aH-cyclopenta[a]phenanthren-7-yl acetate
REMARK  3 active torsions:
REMARK  status: ('A' for Active; 'I' for Inactive)
REMARK    1  A    between atoms: C_7  and  C_15
REMARK    2  A    between atoms: C_17  and  O_18
REMARK    3  A    between atoms: O_18  and  C_19
REMARK                            x       y       z     vdW  Elec       q    Type
REMARK                         _______ _______ _______ _____ _____    ______ ____
ROOT
ATOM      1  C   UNL     1       1.917   1.245   0.000  0.00  0.00    +0.007 C 
ATOM      2  C   UNL     1       1.917   2.267   0.000  0.00  0.00    +0.000 C 
ATOM      3  C   UNL     1       1.045   1.743   0.000  0.00  0.00    +0.000 C 
ATOM      4  C   UNL     1       0.174   1.245   0.000  0.00  0.00    +0.000 C 
ATOM      5  C   UNL     1       0.174   0.249   0.000  0.00  0.00    +0.004 C 
ATOM      6  C   UNL     1       1.071  -0.249   0.000  0.00  0.00    +0.005 C 
ATOM      7  C   UNL     1       1.071  -1.245   0.000  0.00  0.00    +0.025 C 
ATOM      8  C   UNL     1       0.174  -1.743   0.000  0.00  0.00    -0.035 C 
ATOM      9  C   UNL     1      -0.672  -1.245   0.000  0.00  0.00    -0.046 C 
ATOM     10  C   UNL     1      -1.544  -1.743   0.000  0.00  0.00    +0.065 C 
ATOM     11  C   UNL     1      -2.415  -1.245   0.000  0.00  0.00    +0.173 C 
ATOM     12  C   UNL     1      -2.415  -0.249   0.000  0.00  0.00    +0.044 C 
ATOM     13  C   UNL     1      -1.544   0.249   0.000  0.00  0.00    +0.007 C 
ATOM     14  C   UNL     1      -0.672  -0.249   0.000  0.00  0.00    +0.015 C 
ATOM     15  C   UNL     1      -0.672   0.747   0.000  0.00  0.00    +0.004 C 
ATOM     16  C   UNL     1       2.866   1.546   0.000  0.00  0.00    +0.058 C 
ATOM     17  C   UNL     1       3.437   0.773   0.000  0.00  0.00    +0.007 C 
ATOM     18  C   UNL     1       2.866  -0.052   0.000  0.00  0.00    +0.000 C 
ATOM     19  C   UNL     1       1.917   0.249   0.000  0.00  0.00    +0.001 C 
ENDROOT
BRANCH  16  20
ATOM     20  C   UNL     1       3.214   2.490   0.000  0.00  0.00    +0.151 C 
ATOM     21  C   UNL     1       2.565   3.263   0.000  0.00  0.00    +0.072 C 
ATOM     22  O   UNL     1       4.184   2.687   0.000  0.00  0.00    -0.296 OA
ENDBRANCH  16  20
BRANCH  11  23
ATOM     23  O   UNL     1      -3.287  -1.769   0.000  0.00  0.00    -0.452 OA
BRANCH  23  24
ATOM     24  C   UNL     1      -3.312  -2.765   0.000  0.00  0.00    +0.317 C 
ATOM     25  C   UNL     1      -2.441  -3.263   0.000  0.00  0.00    +0.121 C 
ATOM     26  O   UNL     1      -4.184  -3.263   0.000  0.00  0.00    -0.250 OA
ENDBRANCH  23  24
ENDBRANCH  11  23
TORSDOF 3
ENDMDL
MODEL      119
REMARK  Name = 2-(3,4-dihydroxyphenyl)-5,7-dihydroxy-3-{[3,4,5-trihydroxy-6-(hydroxymethyl)oxan-2-yl]oxy}-4H-chromen-4-one
REMARK  4 active torsions:
REMARK  status: ('A' for Active; 'I' for Inactive)
REMARK    1  A    between atoms: C_1  and  O_9
REMARK    2  A    between atoms: C_2  and  C_15
REMARK    3  A    between atoms: C_5  and  O_9
REMARK    4  A    between atoms: C_14  and  C_30
REMARK                            x       y       z     vdW  Elec       q    Type
REMARK                         _______ _______ _______ _____ _____    ______ ____
ROOT
ATOM      1  C   UNL     1       0.385   1.315   0.000  0.00  0.00    +0.214 A 
ATOM      2  C   UNL     1      -0.400   0.880   0.000  0.00  0.00    +0.238 A 
ATOM      3  O   UNL     1      -0.400  -0.034   0.000  0.00  0.00    -0.283 OA
ATOM      4  C   UNL     1      -1.193   1.315   0.000  0.00  0.00    +0.116 A 
ATOM      5  C   UNL     1      -1.978   0.880   0.000  0.00  0.00    +0.205 A 
ATOM      6  O   UNL     1      -1.978  -0.034   0.000  0.00  0.00    -0.286 OA
ATOM      7  C   UNL     1      -2.748   1.315   0.000  0.00  0.00    +0.084 A 
ATOM      8  C   UNL     1      -2.748   2.215   0.000  0.00  0.00    +0.202 A 
ATOM      9  C   UNL     1      -1.978   2.672   0.000  0.00  0.00    +0.080 A 
ATOM     10  O   UNL     1      -3.510   2.672   0.000  0.00  0.00    -0.286 OA
ATOM     11  C   UNL     1      -1.193   2.215   0.000  0.00  0.00    +0.155 A 
ATOM     12  O   UNL     1      -0.400   2.672   0.000  0.00  0.00    -0.450 OA
ATOM     13  C   UNL     1       0.385   2.215   0.000  0.00  0.00    +0.182 A 
ENDROOT
BRANCH  13  14
ATOM     14  C   UNL     1       1.132   2.672   0.000  0.00  0.00    +0.041 A 
ATOM     15  C   UNL     1       1.917   2.215   0.000  0.00  0.00    +0.007 A 
ATOM     16  C   UNL     1       2.710   2.672   0.000  0.00  0.00    +0.045 A 
ATOM     17  C   UNL     1       2.710   3.548   0.000  0.00  0.00    +0.234 A 
ATOM     18  C   UNL     1       1.917   4.006   0.000  0.00  0.00    +0.234 A 
ATOM     19  O   UNL     1       1.902   4.997   0.000  0.00  0.00    -0.283 OA
ATOM     20  O   UNL     1       3.510   4.006   0.000  0.00  0.00    -0.283 OA
ATOM     21  C   UNL     1       1.132   3.548   0.000  0.00  0.00    +0.049 A 
ENDBRANCH  13  14
BRANCH   1  22
ATOM     22  O   UNL     1       1.170   0.842   0.000  0.00  0.00    -0.453 OA
BRANCH  22  23
ATOM     23  C   UNL     1       1.208  -3.442   0.000  0.00  0.00    +0.343 C 
ATOM     24  O   UNL     1       0.454  -2.451   0.000  0.00  0.00    -0.330 OA
ATOM     25  C   UNL     1      -1.010  -2.451   0.000  0.00  0.00    +0.198 C 
ATOM     26  C   UNL     1      -1.757  -3.419   0.000  0.00  0.00    +0.223 C 
ATOM     27  C   UNL     1      -1.025  -4.394   0.000  0.00  0.00    +0.229 C 
ATOM     28  O   UNL     1      -1.025  -3.754   0.000  0.00  0.00    -0.225 OA
ATOM     29  O   UNL     1      -1.757  -2.748   0.000  0.00  0.00    -0.225 OA
ATOM     30  C   UNL     1       0.454  -4.394   0.000  0.00  0.00    +0.259 C 
ATOM     31  O   UNL     1       0.439  -4.997   0.000  0.00  0.00    -0.222 OA
BRANCH  25  32
ATOM     32  C   UNL     1      -1.010  -1.833   0.000  0.00  0.00    +0.207 C 
ATOM     33  O   UNL     1      -2.451  -1.848   0.000  0.00  0.00    -0.218 OA
ENDBRANCH  25  32
ENDBRANCH  22  23
ENDBRANCH   1  22
TORSDOF 4
ENDMDL
MODEL      120
REMARK  Name = 3a,5a-dihydroxy-11a-methyl-1-(5-oxo-2,5-dihydrofuran-3-yl)-7-({2,2,4-trimethyl-hexahydro-[1,3]dioxolo[4,5-c]pyran-6-yl}oxy)-hexadecahydro-1H-cyclopenta[a]phenanthrene-9a-carbaldehyde
REMARK  4 active torsions:
REMARK  status: ('A' for Active; 'I' for Inactive)
REMARK    1  A    between atoms: C_2  and  C_30
REMARK    2  A    between atoms: C_9  and  C_10
REMARK    3  A    between atoms: C_14  and  O_31
REMARK    4  A    between atoms: O_31  and  C_32
REMARK                            x       y       z     vdW  Elec       q    Type
REMARK                         _______ _______ _______ _____ _____    ______ ____
ROOT
ATOM      1  C   UNL     1       3.842  -0.058   0.000  0.00  0.00    +0.123 C 
ATOM      2  O   UNL     1       3.842  -1.071   0.000  0.00  0.00    -0.226 OA
ATOM      3  C   UNL     1       4.731  -0.354   0.000  0.00  0.00    +0.030 C 
ATOM      4  C   UNL     1       5.277   0.416   0.000  0.00  0.00    +0.007 C 
ATOM      5  C   UNL     1       4.731   1.150   0.000  0.00  0.00    +0.024 C 
ATOM      6  C   UNL     1       2.999  -0.541   0.000  0.00  0.00    +0.038 C 
ATOM      7  C   UNL     1       2.999  -1.503   0.000  0.00  0.00    +0.001 C 
ATOM      8  C   UNL     1       2.172  -1.946   0.000  0.00  0.00    +0.031 C 
ATOM      9  C   UNL     1       1.355  -1.503   0.000  0.00  0.00    +0.135 C 
ATOM     10  C   UNL     1       1.355  -0.541   0.000  0.00  0.00    +0.081 C 
ATOM     11  C   UNL     1       0.486  -0.058   0.000  0.00  0.00    +0.012 C 
ATOM     12  C   UNL     1      -0.284  -0.541   0.000  0.00  0.00    +0.030 C 
ATOM     13  C   UNL     1      -0.284  -1.503   0.000  0.00  0.00    +0.120 C 
ATOM     14  O   UNL     1       1.355  -2.752   0.000  0.00  0.00    -0.225 OA
ATOM     15  C   UNL     1       0.486  -1.946   0.000  0.00  0.00    +0.060 C 
ATOM     16  C   UNL     1       2.172  -0.058   0.000  0.00  0.00    +0.021 C 
ATOM     17  C   UNL     1       2.172   0.895   0.000  0.00  0.00    -0.004 C 
ATOM     18  C   UNL     1       2.999   1.379   0.000  0.00  0.00    +0.002 C 
ATOM     19  C   UNL     1       3.842   0.895   0.000  0.00  0.00    +0.029 C 
ATOM     20  C   UNL     1       3.842   1.836   0.000  0.00  0.00    +0.003 C 
ENDROOT
BRANCH   5  21
ATOM     21  C   UNL     1       5.038   2.159   0.000  0.00  0.00    +0.005 C 
ATOM     22  C   UNL     1       6.053   2.502   0.000  0.00  0.00    +0.231 C 
ATOM     23  O   UNL     1       6.053   3.532   0.000  0.00  0.00    -0.441 OA
ATOM     24  C   UNL     1       5.038   3.849   0.000  0.00  0.00    +0.341 C 
ATOM     25  O   UNL     1       4.695   4.911   0.000  0.00  0.00    -0.245 OA
ATOM     26  C   UNL     1       4.435   2.965   0.000  0.00  0.00    +0.077 C 
ENDBRANCH   5  21
BRANCH  10  27
ATOM     27  C   UNL     1       1.355   0.416   0.000  0.00  0.00    +0.209 C 
ATOM     28  O   UNL     1       0.450   0.979   0.000  0.00  0.00    -0.288 OA
ENDBRANCH  10  27
BRANCH  13  29
ATOM     29  O   UNL     1      -1.059  -2.086   0.000  0.00  0.00    -0.333 OA
BRANCH  29  30
ATOM     30  C   UNL     1      -2.088  -2.242   0.000  0.00  0.00    +0.237 C 
ATOM     31  O   UNL     1      -2.728  -1.441   0.000  0.00  0.00    -0.331 OA
ATOM     32  C   UNL     1      -3.748  -1.597   0.000  0.00  0.00    +0.141 C 
ATOM     33  C   UNL     1      -4.398  -0.790   0.000  0.00  0.00    +0.034 C 
ATOM     34  C   UNL     1      -4.122  -2.554   0.000  0.00  0.00    +0.187 C 
ATOM     35  C   UNL     1      -3.482  -3.350   0.000  0.00  0.00    +0.166 C 
ATOM     36  O   UNL     1      -4.055  -4.209   0.000  0.00  0.00    -0.341 OA
ATOM     37  C   UNL     1      -5.038  -3.927   0.000  0.00  0.00    +0.186 C 
ATOM     38  C   UNL     1      -6.053  -4.146   0.000  0.00  0.00    +0.061 C 
ATOM     39  C   UNL     1      -4.731  -4.911   0.000  0.00  0.00    +0.061 C 
ATOM     40  O   UNL     1      -5.085  -2.913   0.000  0.00  0.00    -0.339 OA
ATOM     41  C   UNL     1      -2.463  -3.194   0.000  0.00  0.00    +0.087 C 
ENDBRANCH  29  30
ENDBRANCH  13  29
TORSDOF 4
ENDMDL
MODEL      121
REMARK  Name = methyl 4-methyl-4a,5,7,8,13,13b,14,14a-octahydro-4H-pyrano[4',3':4,5]pyrido[2,1-a]beta-carboline-1-carboxylate
REMARK  2 active torsions:
REMARK  status: ('A' for Active; 'I' for Inactive)
REMARK    1  A    between atoms: C_2  and  C_14
REMARK    2  A    between atoms: C_14  and  O_20
REMARK                            x       y       z     vdW  Elec       q    Type
REMARK                         _______ _______ _______ _____ _____    ______ ____
ROOT
ATOM      1  C   UNL     1      -0.712   1.383   0.000  0.00  0.00    +0.070 A 
ATOM      2  C   UNL     1       0.159   0.906   0.000  0.00  0.00    +0.098 C 
ATOM      3  C   UNL     1       0.159  -0.106   0.000  0.00  0.00    +0.027 C 
ATOM      4  C   UNL     1       1.041  -0.618   0.000  0.00  0.00    +0.038 C 
ATOM      5  C   UNL     1       1.918  -0.082   0.000  0.00  0.00    +0.060 C 
ATOM      6  C   UNL     1       1.918   0.906   0.000  0.00  0.00    +0.076 C 
ATOM      7  C   UNL     1       2.789  -0.618   0.000  0.00  0.00    +0.168 C 
ATOM      8  C   UNL     1       3.654  -0.106   0.000  0.00  0.00    +0.047 C 
ATOM      9  O   UNL     1       2.789  -1.606   0.000  0.00  0.00    -0.476 OA
ATOM     10  C   UNL     1       1.889  -2.118   0.000  0.00  0.00    +0.174 C 
ATOM     11  C   UNL     1       1.041  -1.636   0.000  0.00  0.00    +0.090 C 
ATOM     12  N   UNL     1       1.041   1.383   0.000  0.00  0.00    -0.269 NA
ATOM     13  C   UNL     1       1.041   2.401   0.000  0.00  0.00    +0.077 C 
ATOM     14  C   UNL     1       0.159   2.883   0.000  0.00  0.00    +0.045 C 
ATOM     15  N   UNL     1      -1.677   1.100   0.000  0.00  0.00    -0.249 NA
ATOM     16  C   UNL     1      -2.242   1.924   0.000  0.00  0.00    +0.081 A 
ATOM     17  C   UNL     1      -1.677   2.683   0.000  0.00  0.00    +0.015 A 
ATOM     18  C   UNL     1      -2.100   3.589   0.000  0.00  0.00    +0.001 A 
ATOM     19  C   UNL     1      -3.089   3.671   0.000  0.00  0.00    +0.000 A 
ATOM     20  C   UNL     1      -3.654   2.912   0.000  0.00  0.00    +0.002 A 
ATOM     21  C   UNL     1      -3.230   2.012   0.000  0.00  0.00    +0.019 A 
ATOM     22  C   UNL     1      -0.741   2.371   0.000  0.00  0.00    -0.004 A 
ENDROOT
BRANCH  11  23
ATOM     23  C   UNL     1       0.159  -2.171   0.000  0.00  0.00    +0.340 C 
ATOM     24  O   UNL     1      -0.712  -1.694   0.000  0.00  0.00    -0.245 OA
BRANCH  23  25
ATOM     25  O   UNL     1       0.194  -3.160   0.000  0.00  0.00    -0.441 OA
ATOM     26  C   UNL     1      -0.653  -3.671   0.000  0.00  0.00    +0.256 C 
ENDBRANCH  23  25
ENDBRANCH  11  23
TORSDOF 2
ENDMDL
MODEL      122
REMARK  Name = (9E)-9-(hydroxyimino)-5a,5b,8,8,11a-pentamethyl-1-(prop-1-en-2-yl)-icosahydro-1H-cyclopenta[a]chrysene-3a-carboxylic acid
REMARK  2 active torsions:
REMARK  status: ('A' for Active; 'I' for Inactive)
REMARK    1  A    between atoms: C_4  and  C_11
REMARK    2  A    between atoms: C_10  and  C_22
REMARK                            x       y       z     vdW  Elec       q    Type
REMARK                         _______ _______ _______ _____ _____    ______ ____
ROOT
ATOM      1  C   UNL     1       1.281  -0.784   0.000  0.00  0.00    +0.000 C 
ATOM      2  C   UNL     1       1.281  -1.719   0.000  0.00  0.00    +0.000 C 
ATOM      3  C   UNL     1       2.153  -1.288   0.000  0.00  0.00    +0.001 C 
ATOM      4  C   UNL     1       3.046  -0.784   0.000  0.00  0.00    +0.011 C 
ATOM      5  C   UNL     1       3.046   0.241   0.000  0.00  0.00    +0.094 C 
ATOM      6  C   UNL     1       2.153   0.733   0.000  0.00  0.00    +0.014 C 
ATOM      7  C   UNL     1       2.388   1.736   0.000  0.00  0.00    +0.019 C 
ATOM      8  C   UNL     1       3.375   1.831   0.000  0.00  0.00    +0.005 C 
ATOM      9  C   UNL     1       3.772   0.878   0.000  0.00  0.00    +0.011 C 
ATOM     10  C   UNL     1       1.281   0.241   0.000  0.00  0.00    +0.001 C 
ATOM     11  C   UNL     1       0.402   0.754   0.000  0.00  0.00    +0.000 C 
ATOM     12  C   UNL     1      -0.483   0.241   0.000  0.00  0.00    +0.000 C 
ATOM     13  C   UNL     1      -0.483  -0.784   0.000  0.00  0.00    +0.000 C 
ATOM     14  C   UNL     1      -1.354  -1.288   0.000  0.00  0.00    +0.001 C 
ATOM     15  C   UNL     1      -1.354  -2.322   0.000  0.00  0.00    +0.005 C 
ATOM     16  C   UNL     1      -2.247  -2.826   0.000  0.00  0.00    +0.035 C 
ATOM     17  C   UNL     1      -2.913  -3.441   0.000  0.00  0.00    +0.006 C 
ATOM     18  C   UNL     1      -1.581  -3.441   0.000  0.00  0.00    +0.006 C 
ATOM     19  C   UNL     1      -3.127  -2.322   0.000  0.00  0.00    +0.079 C 
ATOM     20  C   UNL     1      -3.127  -1.288   0.000  0.00  0.00    +0.045 C 
ATOM     21  N   UNL     1      -3.977  -2.834   0.000  0.00  0.00    -0.038 NA
ATOM     22  O   UNL     1      -4.840  -2.351   0.000  0.00  0.00    -0.144 OA
ATOM     23  C   UNL     1      -0.483  -2.826   0.000  0.00  0.00    +0.000 C 
ATOM     24  C   UNL     1       0.410  -2.322   0.000  0.00  0.00    +0.000 C 
ATOM     25  C   UNL     1      -1.354  -0.404   0.000  0.00  0.00    +0.000 C 
ATOM     26  C   UNL     1      -2.247  -0.784   0.000  0.00  0.00    +0.006 C 
ATOM     27  C   UNL     1       0.419  -1.288   0.000  0.00  0.00    +0.000 C 
ATOM     28  C   UNL     1       0.410  -0.374   0.000  0.00  0.00    +0.000 C 
ENDROOT
BRANCH   7  29
ATOM     29  C   UNL     1       1.743   2.505   0.000  0.00  0.00    -0.044 C 
ATOM     30  C   UNL     1       0.760   2.343   0.000  0.00  0.00    +0.026 C 
ATOM     31  C   UNL     1       2.093   3.441   0.000  0.00  0.00    -0.009 C 
ENDBRANCH   7  29
BRANCH   5  32
ATOM     32  C   UNL     1       3.968  -0.263   0.000  0.00  0.00    +0.364 C 
ATOM     33  O   UNL     1       4.840   0.199   0.000  0.00  0.00    -0.246 OA
ATOM     34  O   UNL     1       4.020  -1.258   0.000  0.00  0.00    -0.246 OA
ENDBRANCH   5  32
TORSDOF 2
ENDMDL
MODEL      123
REMARK  Name = 2,4a,6a,6b,9,9,12a-heptamethyl-10,13-dioxo-1,2,3,4,4a,5,6,6a,6b,7,8,8a,9,10,11,12,12a,12b,13,14b-icosahydropicene-2-carboxylic acid
REMARK  1 active torsions:
REMARK  status: ('A' for Active; 'I' for Inactive)
REMARK    1  A    between atoms: C_11  and  C_15
REMARK                            x       y       z     vdW  Elec       q    Type
REMARK                         _______ _______ _______ _____ _____    ______ ____
ROOT
ATOM      1  C   UNL     1       0.527  -0.117   0.000  0.00  0.00    -0.046 C 
ATOM      2  C   UNL     1       1.477   0.536   0.000  0.00  0.00    +0.033 C 
ATOM      3  C   UNL     1       2.399   0.010   0.000  0.00  0.00    -0.000 C 
ATOM      4  C   UNL     1       3.442  -0.610   0.000  0.00  0.00    +0.000 C 
ATOM      5  C   UNL     1       3.335   0.536   0.000  0.00  0.00    +0.001 C 
ATOM      6  C   UNL     1       3.335   1.589   0.000  0.00  0.00    +0.011 C 
ATOM      7  C   UNL     1       2.399   2.116   0.000  0.00  0.00    +0.094 C 
ATOM      8  C   UNL     1       1.477   2.701   0.000  0.00  0.00    +0.011 C 
ATOM      9  C   UNL     1       2.399  -1.063   0.000  0.00  0.00    +0.000 C 
ATOM     10  C   UNL     1       1.477  -1.589   0.000  0.00  0.00    +0.004 C 
ATOM     11  C   UNL     1       1.477   1.589   0.000  0.00  0.00    +0.010 C 
ATOM     12  C   UNL     1      -0.200   0.341   0.000  0.00  0.00    +0.029 C 
ATOM     13  C   UNL     1      -0.936  -0.117   0.000  0.00  0.00    +0.172 C 
ATOM     14  O   UNL     1      -1.814   0.341   0.000  0.00  0.00    -0.291 OA
ATOM     15  C   UNL     1      -0.936  -0.961   0.000  0.00  0.00    +0.062 C 
ATOM     16  C   UNL     1      -0.200  -1.380   0.000  0.00  0.00    +0.010 C 
ATOM     17  C   UNL     1      -0.200  -0.551   0.000  0.00  0.00    +0.001 C 
ATOM     18  C   UNL     1      -0.200  -2.330   0.000  0.00  0.00    +0.001 C 
ATOM     19  C   UNL     1      -0.936  -2.808   0.000  0.00  0.00    +0.000 C 
ATOM     20  C   UNL     1      -1.672  -2.330   0.000  0.00  0.00    +0.007 C 
ATOM     21  C   UNL     1      -2.457  -2.808   0.000  0.00  0.00    +0.052 C 
ATOM     22  C   UNL     1      -3.203  -2.330   0.000  0.00  0.00    +0.150 C 
ATOM     23  O   UNL     1      -4.329  -3.018   0.000  0.00  0.00    -0.296 OA
ATOM     24  C   UNL     1      -3.203  -1.380   0.000  0.00  0.00    +0.064 C 
ATOM     25  C   UNL     1      -2.457  -0.961   0.000  0.00  0.00    +0.008 C 
ATOM     26  C   UNL     1      -2.994  -3.861   0.000  0.00  0.00    +0.007 C 
ATOM     27  C   UNL     1      -1.814  -3.696   0.000  0.00  0.00    +0.007 C 
ATOM     28  C   UNL     1      -1.672  -1.380   0.000  0.00  0.00    +0.008 C 
ATOM     29  C   UNL     1      -1.672  -0.502   0.000  0.00  0.00    +0.000 C 
ATOM     30  C   UNL     1       0.527  -0.961   0.000  0.00  0.00    +0.015 C 
ATOM     31  C   UNL     1       0.541  -1.980   0.000  0.00  0.00    +0.004 C 
ENDROOT
BRANCH   7  32
ATOM     32  C   UNL     1       3.291   2.725   0.000  0.00  0.00    +0.364 C 
ATOM     33  O   UNL     1       4.329   2.116   0.000  0.00  0.00    -0.246 OA
ATOM     34  O   UNL     1       3.291   3.861   0.000  0.00  0.00    -0.246 OA
ENDBRANCH   7  32
TORSDOF 1
ENDMDL
MODEL      124
REMARK  Name = 9-hydroxy-8,8-dimethyl-2H,8H,9H,10H-pyrano[2,3-h]chromen-2-one
REMARK  0 active torsions:
REMARK  status: ('A' for Active; 'I' for Inactive)
REMARK                            x       y       z     vdW  Elec       q    Type
REMARK                         _______ _______ _______ _____ _____    ______ ____
ROOT
ATOM      1  C   UNL     1      -0.383   0.255   0.000  0.00  0.00    +0.049 A 
ATOM      2  C   UNL     1      -0.412  -0.742   0.000  0.00  0.00    +0.069 C 
ATOM      3  C   UNL     1      -1.267  -1.252   0.000  0.00  0.00    +0.193 C 
ATOM      4  O   UNL     1      -1.267  -2.249   0.000  0.00  0.00    -0.219 OA
ATOM      5  C   UNL     1      -2.121  -0.712   0.000  0.00  0.00    +0.161 C 
ATOM      6  O   UNL     1      -2.121   0.255   0.000  0.00  0.00    -0.480 OA
ATOM      7  C   UNL     1      -3.088  -0.427   0.000  0.00  0.00    +0.046 C 
ATOM      8  C   UNL     1      -3.005  -1.198   0.000  0.00  0.00    +0.046 C 
ATOM      9  C   UNL     1      -1.237   0.742   0.000  0.00  0.00    +0.137 A 
ATOM     10  C   UNL     1      -1.237   1.738   0.000  0.00  0.00    +0.037 A 
ATOM     11  C   UNL     1      -0.383   2.249   0.000  0.00  0.00    +0.006 A 
ATOM     12  C   UNL     1       0.495   1.709   0.000  0.00  0.00    +0.035 A 
ATOM     13  C   UNL     1       1.350   2.219   0.000  0.00  0.00    +0.010 A 
ATOM     14  C   UNL     1       2.234   1.738   0.000  0.00  0.00    +0.082 A 
ATOM     15  C   UNL     1       2.204   0.712   0.000  0.00  0.00    +0.346 A 
ATOM     16  O   UNL     1       3.088   0.202   0.000  0.00  0.00    -0.244 OA
ATOM     17  O   UNL     1       1.350   0.226   0.000  0.00  0.00    -0.421 OA
ATOM     18  C   UNL     1       0.472   0.742   0.000  0.00  0.00    +0.148 A 
ENDROOT
TORSDOF 0
ENDMDL
MODEL      125
REMARK  Name = 2,3-dihydroxypropyl 3-(1,3-dimethyl-2-{[(2-oxo-2H-chromen-7-yl)oxy]methyl}-6-(prop-1-en-2-yl)cyclohex-3-en-1-yl)propanoate
REMARK  11 active torsions:
REMARK  status: ('A' for Active; 'I' for Inactive)
REMARK    1  A    between atoms: C_1  and  C_9
REMARK    2  A    between atoms: C_2  and  C_16
REMARK    3  A    between atoms: C_3  and  C_12
REMARK    4  A    between atoms: C_9  and  C_25
REMARK    5  A    between atoms: C_16  and  O_20
REMARK    6  A    between atoms: C_17  and  O_21
REMARK    7  A    between atoms: C_17  and  C_25
REMARK    8  A    between atoms: O_20  and  C_23
REMARK    9  A    between atoms: O_21  and  C_28
REMARK   10  A    between atoms: C_26  and  C_28
REMARK   11  A    between atoms: C_26  and  C_34
REMARK                            x       y       z     vdW  Elec       q    Type
REMARK                         _______ _______ _______ _____ _____    ______ ____
ROOT
ATOM      1  C   UNL     1       2.473   0.866   0.000  0.00  0.00    +0.011 C 
ATOM      2  C   UNL     1       3.151   0.214   0.000  0.00  0.00    +0.001 C 
ATOM      3  C   UNL     1       3.439   1.168   0.000  0.00  0.00    +0.023 C 
ATOM      4  C   UNL     1       3.647   2.147   0.000  0.00  0.00    +0.029 C 
ATOM      5  C   UNL     1       2.909   2.825   0.000  0.00  0.00    -0.034 C 
ATOM      6  C   UNL     1       1.922   2.523   0.000  0.00  0.00    -0.045 C 
ATOM      7  C   UNL     1       1.198   3.181   0.000  0.00  0.00    +0.026 C 
ATOM      8  C   UNL     1       1.748   1.503   0.000  0.00  0.00    +0.062 C 
ENDROOT
BRANCH   3   9
ATOM      9  C   UNL     1       4.130   0.557   0.000  0.00  0.00    -0.044 C 
ATOM     10  C   UNL     1       3.936  -0.430   0.000  0.00  0.00    +0.026 C 
ATOM     11  C   UNL     1       5.097   0.892   0.000  0.00  0.00    -0.009 C 
ENDBRANCH   3   9
BRANCH   1  12
ATOM     12  C   UNL     1       1.520   0.570   0.000  0.00  0.00    +0.012 C 
BRANCH  12  13
ATOM     13  C   UNL     1       1.278  -0.376   0.000  0.00  0.00    +0.110 C 
BRANCH  13  14
ATOM     14  C   UNL     1       2.023  -1.040   0.000  0.00  0.00    +0.317 C 
ATOM     15  O   UNL     1       3.003  -0.732   0.000  0.00  0.00    -0.250 OA
BRANCH  14  16
ATOM     16  O   UNL     1       1.748  -1.960   0.000  0.00  0.00    -0.446 OA
BRANCH  16  17
ATOM     17  C   UNL     1       2.406  -2.684   0.000  0.00  0.00    +0.244 C 
BRANCH  17  18
ATOM     18  C   UNL     1       3.359  -2.470   0.000  0.00  0.00    +0.228 C 
ATOM     19  O   UNL     1       3.647  -1.537   0.000  0.00  0.00    -0.216 OA
BRANCH  18  20
ATOM     20  C   UNL     1       4.016  -3.181   0.000  0.00  0.00    +0.219 C 
ATOM     21  O   UNL     1       4.969  -2.973   0.000  0.00  0.00    -0.217 OA
ENDBRANCH  18  20
ENDBRANCH  17  18
ENDBRANCH  16  17
ENDBRANCH  14  16
ENDBRANCH  13  14
ENDBRANCH  12  13
ENDBRANCH   1  12
BRANCH   8  22
ATOM     22  C   UNL     1       0.782   1.181   0.000  0.00  0.00    +0.209 C 
BRANCH  22  23
ATOM     23  O   UNL     1       0.010   1.845   0.000  0.00  0.00    -0.475 OA
BRANCH  23  24
ATOM     24  C   UNL     1      -0.909   1.557   0.000  0.00  0.00    +0.142 A 
ATOM     25  C   UNL     1      -1.117   0.557   0.000  0.00  0.00    +0.037 A 
ATOM     26  C   UNL     1      -2.084   0.214   0.000  0.00  0.00    +0.006 A 
ATOM     27  C   UNL     1      -2.795   0.913   0.000  0.00  0.00    +0.035 A 
ATOM     28  C   UNL     1      -2.620   1.926   0.000  0.00  0.00    +0.152 A 
ATOM     29  O   UNL     1      -3.372   2.570   0.000  0.00  0.00    -0.421 OA
ATOM     30  C   UNL     1      -4.338   2.282   0.000  0.00  0.00    +0.346 A 
ATOM     31  C   UNL     1      -4.580   1.268   0.000  0.00  0.00    +0.082 A 
ATOM     32  O   UNL     1      -5.097   2.973   0.000  0.00  0.00    -0.244 OA
ATOM     33  C   UNL     1      -3.829   0.590   0.000  0.00  0.00    +0.010 A 
ATOM     34  C   UNL     1      -1.654   2.228   0.000  0.00  0.00    +0.074 A 
ENDBRANCH  23  24
ENDBRANCH  22  23
ENDBRANCH   8  22
TORSDOF 11
ENDMDL
MODEL      126
REMARK  Name = 1,4-bis(3,4-dimethoxyphenyl)-hexahydrofuro[3,4-c]furan
REMARK  6 active torsions:
REMARK  status: ('A' for Active; 'I' for Inactive)
REMARK    1  A    between atoms: C_3  and  C_8
REMARK    2  A    between atoms: C_4  and  C_7
REMARK    3  A    between atoms: C_13  and  O_21
REMARK    4  A    between atoms: C_14  and  O_22
REMARK    5  A    between atoms: C_15  and  O_23
REMARK    6  A    between atoms: C_16  and  O_24
REMARK                            x       y       z     vdW  Elec       q    Type
REMARK                         _______ _______ _______ _____ _____    ______ ____
ROOT
ATOM      1  C   UNL     1       0.768  -0.293   0.000  0.00  0.00    +0.076 C 
ATOM      2  C   UNL     1       1.085  -1.244   0.000  0.00  0.00    +0.141 C 
ATOM      3  O   UNL     1       0.253  -1.833   0.000  0.00  0.00    -0.352 OA
ATOM      4  C   UNL     1      -0.530  -1.244   0.000  0.00  0.00    +0.136 C 
ATOM      5  C   UNL     1       1.098   0.640   0.000  0.00  0.00    +0.136 C 
ATOM      6  O   UNL     1       0.262   1.222   0.000  0.00  0.00    -0.352 OA
ATOM      7  C   UNL     1      -0.508   0.649   0.000  0.00  0.00    +0.141 C 
ATOM      8  C   UNL     1      -0.222  -0.293   0.000  0.00  0.00    +0.076 C 
ENDROOT
BRANCH   4   9
ATOM      9  C   UNL     1      -1.428  -1.653   0.000  0.00  0.00    +0.008 A 
ATOM     10  C   UNL     1      -1.543  -2.648   0.000  0.00  0.00    +0.001 A 
ATOM     11  C   UNL     1      -2.485  -3.048   0.000  0.00  0.00    +0.040 A 
ATOM     12  C   UNL     1      -3.277  -2.458   0.000  0.00  0.00    +0.172 A 
ATOM     13  C   UNL     1      -3.171  -1.463   0.000  0.00  0.00    +0.172 A 
ATOM     14  C   UNL     1      -2.260  -1.050   0.000  0.00  0.00    +0.038 A 
BRANCH  13  15
ATOM     15  O   UNL     1      -4.003  -0.874   0.000  0.00  0.00    -0.468 OA
ATOM     16  C   UNL     1      -4.923  -1.296   0.000  0.00  0.00    +0.253 C 
ENDBRANCH  13  15
BRANCH  12  17
ATOM     17  O   UNL     1      -4.197  -2.868   0.000  0.00  0.00    -0.468 OA
ATOM     18  C   UNL     1      -5.007  -2.265   0.000  0.00  0.00    +0.253 C 
ENDBRANCH  12  17
ENDBRANCH   4   9
BRANCH   5  19
ATOM     19  C   UNL     1       2.027   1.019   0.000  0.00  0.00    +0.008 A 
ATOM     20  C   UNL     1       2.177   1.978   0.000  0.00  0.00    +0.001 A 
ATOM     21  C   UNL     1       3.114   2.340   0.000  0.00  0.00    +0.040 A 
ATOM     22  C   UNL     1       3.898   1.706   0.000  0.00  0.00    +0.172 A 
ATOM     23  C   UNL     1       3.739   0.746   0.000  0.00  0.00    +0.172 A 
ATOM     24  C   UNL     1       2.811   0.385   0.000  0.00  0.00    +0.038 A 
BRANCH  23  25
ATOM     25  O   UNL     1       4.532   0.121   0.000  0.00  0.00    -0.468 OA
ATOM     26  C   UNL     1       4.382  -0.874   0.000  0.00  0.00    +0.253 C 
ENDBRANCH  23  25
BRANCH  22  27
ATOM     27  O   UNL     1       4.835   2.067   0.000  0.00  0.00    -0.468 OA
ATOM     28  C   UNL     1       5.007   3.048   0.000  0.00  0.00    +0.253 C 
ENDBRANCH  22  27
ENDBRANCH   5  19
TORSDOF 6
ENDMDL
MODEL      127
REMARK  Name = 14-[(BUTAN-2-YL)AMINO]-3,4,5-TRIMETHOXY-10-(METHYLAMINO)TRICYCLO[9.5.0.0^(2,7)]HEXADECA-1(16),2,4,6,11,14-HEXAEN-13-ONE
REMARK  7 active torsions:
REMARK  status: ('A' for Active; 'I' for Inactive)
REMARK    1  A    between atoms: C_4  and  O_19
REMARK    2  A    between atoms: C_6  and  O_20
REMARK    3  A    between atoms: C_9  and  N_14
REMARK    4  A    between atoms: C_12  and  O_22
REMARK    5  A    between atoms: N_14  and  C_23
REMARK    6  A    between atoms: C_15  and  N_21
REMARK    7  A    between atoms: C_23  and  C_28
REMARK                            x       y       z     vdW  Elec       q    Type
REMARK                         _______ _______ _______ _____ _____    ______ ____
ROOT
ATOM      1  C   UNL     1       0.303   0.397   0.000  0.00  0.00    -0.000 A 
ATOM      2  C   UNL     1      -0.326  -0.392   0.000  0.00  0.00    +0.001 A 
ATOM      3  C   UNL     1      -0.101  -1.378   0.000  0.00  0.00    +0.019 A 
ATOM      4  C   UNL     1       0.786  -1.782   0.000  0.00  0.00    +0.104 A 
ATOM      5  C   UNL     1       1.725  -1.364   0.000  0.00  0.00    +0.210 A 
ATOM      6  O   UNL     1       2.514  -1.983   0.000  0.00  0.00    -0.285 OA
ATOM      7  C   UNL     1       1.969  -0.392   0.000  0.00  0.00    +0.040 A 
ATOM      8  C   UNL     1      -0.284   1.227   0.000  0.00  0.00    +0.033 A 
ATOM      9  C   UNL     1      -0.044   2.199   0.000  0.00  0.00    -0.016 A 
ATOM     10  C   UNL     1       0.829   2.636   0.000  0.00  0.00    +0.028 C 
ATOM     11  C   UNL     1       1.744   2.204   0.000  0.00  0.00    +0.019 C 
ATOM     12  C   UNL     1       1.993   1.227   0.000  0.00  0.00    +0.094 C 
ATOM     13  C   UNL     1      -0.791   2.889   0.000  0.00  0.00    +0.036 A 
ATOM     14  C   UNL     1      -1.748   2.607   0.000  0.00  0.00    +0.175 A 
ATOM     15  C   UNL     1      -1.988   1.655   0.000  0.00  0.00    +0.206 A 
ATOM     16  C   UNL     1      -1.260   0.946   0.000  0.00  0.00    +0.175 A 
ATOM     17  C   UNL     1       1.335   0.397   0.000  0.00  0.00    -0.010 A 
ENDROOT
BRANCH  12  18
ATOM     18  N   UNL     1       2.659   0.415   0.000  0.00  0.00    -0.298 NA
ATOM     19  H   UNL     1       3.640   0.570   0.000  0.00  0.00    +0.123 HD
ATOM     20  C   UNL     1       3.007  -0.448   0.000  0.00  0.00    +0.086 C 
ENDBRANCH  12  18
BRANCH  15  21
ATOM     21  O   UNL     1      -2.946   1.397   0.000  0.00  0.00    -0.465 OA
ATOM     22  C   UNL     1      -3.640   2.105   0.000  0.00  0.00    +0.253 C 
ENDBRANCH  15  21
BRANCH  14  23
ATOM     23  O   UNL     1      -2.457   3.274   0.000  0.00  0.00    -0.468 OA
ATOM     24  C   UNL     1      -2.232   4.255   0.000  0.00  0.00    +0.253 C 
ENDBRANCH  14  23
BRANCH  16  25
ATOM     25  O   UNL     1      -1.509  -0.026   0.000  0.00  0.00    -0.468 OA
ATOM     26  C   UNL     1      -2.457  -0.279   0.000  0.00  0.00    +0.253 C 
ENDBRANCH  16  25
BRANCH   4  27
ATOM     27  N   UNL     1       0.767  -2.786   0.000  0.00  0.00    -0.236 NA
BRANCH  27  28
ATOM     28  C   UNL     1       1.617  -3.279   0.000  0.00  0.00    +0.093 C 
ATOM     29  C   UNL     1       1.617  -4.255   0.000  0.00  0.00    +0.023 C 
BRANCH  28  30
ATOM     30  C   UNL     1       2.476  -2.795   0.000  0.00  0.00    +0.022 C 
ATOM     31  C   UNL     1       3.335  -3.293   0.000  0.00  0.00    +0.002 C 
ENDBRANCH  28  30
ENDBRANCH  27  28
ENDBRANCH   4  27
TORSDOF 7
ENDMDL
MODEL      128
REMARK  Name = N-[(8S)-11-(isopropylamino)-1,2,3-trimethoxy-10-oxo-6,7,8,10-tetrahydro-5H-benzo[a]cyclohepta[c][8]annulen-8-yl]acetamide
REMARK  6 active torsions:
REMARK  status: ('A' for Active; 'I' for Inactive)
REMARK    1  A    between atoms: C_4  and  O_20
REMARK    2  A    between atoms: C_6  and  O_21
REMARK    3  A    between atoms: C_8  and  N_16
REMARK    4  A    between atoms: C_11  and  N_14
REMARK    5  A    between atoms: C_13  and  O_22
REMARK    6  A    between atoms: N_16  and  C_24
REMARK                            x       y       z     vdW  Elec       q    Type
REMARK                         _______ _______ _______ _____ _____    ______ ____
ROOT
ATOM      1  C   UNL     1      -0.056   1.256   0.000  0.00  0.00    +0.000 A 
ATOM      2  C   UNL     1      -0.648   0.656   0.000  0.00  0.00    +0.001 A 
ATOM      3  C   UNL     1      -0.490  -0.319   0.000  0.00  0.00    +0.019 A 
ATOM      4  C   UNL     1       0.427  -0.789   0.000  0.00  0.00    +0.104 A 
ATOM      5  C   UNL     1       1.377  -0.348   0.000  0.00  0.00    +0.210 A 
ATOM      6  O   UNL     1       2.173  -0.969   0.000  0.00  0.00    -0.285 OA
ATOM      7  C   UNL     1       1.560   0.627   0.000  0.00  0.00    +0.041 A 
ATOM      8  C   UNL     1      -0.940   1.760   0.000  0.00  0.00    +0.033 A 
ATOM      9  C   UNL     1      -0.944   2.785   0.000  0.00  0.00    -0.016 A 
ATOM     10  C   UNL     1      -0.060   3.306   0.000  0.00  0.00    +0.026 C 
ATOM     11  C   UNL     1       0.956   3.290   0.000  0.00  0.00    +0.002 C 
ATOM     12  C   UNL     1       1.831   2.777   0.000  0.00  0.00    +0.036 C 
ATOM     13  C   UNL     1       1.831   1.760   0.000  0.00  0.00    +0.114 C 
ATOM     14  C   UNL     1      -1.823   3.290   0.000  0.00  0.00    +0.036 A 
ATOM     15  C   UNL     1      -2.694   2.781   0.000  0.00  0.00    +0.175 A 
ATOM     16  C   UNL     1      -2.694   1.769   0.000  0.00  0.00    +0.206 A 
ATOM     17  C   UNL     1      -1.819   1.256   0.000  0.00  0.00    +0.175 A 
ATOM     18  C   UNL     1       0.956   1.265   0.000  0.00  0.00    +0.000 A 
ENDROOT
BRANCH  13  19
ATOM     19  N   UNL     1       2.698   1.252   0.000  0.00  0.00    -0.203 NA
ATOM     20  C   UNL     1       3.577   1.756   0.000  0.00  0.00    +0.242 C 
ATOM     21  C   UNL     1       4.456   1.248   0.000  0.00  0.00    +0.096 C 
ATOM     22  O   UNL     1       3.581   2.773   0.000  0.00  0.00    -0.273 OA
ENDBRANCH  13  19
BRANCH  16  23
ATOM     23  O   UNL     1      -3.569   1.256   0.000  0.00  0.00    -0.465 OA
ATOM     24  C   UNL     1      -3.573   0.244   0.000  0.00  0.00    +0.253 C 
ENDBRANCH  16  23
BRANCH  15  25
ATOM     25  O   UNL     1      -3.577   3.290   0.000  0.00  0.00    -0.468 OA
ATOM     26  C   UNL     1      -4.456   2.785   0.000  0.00  0.00    +0.253 C 
ENDBRANCH  15  25
BRANCH  17  27
ATOM     27  O   UNL     1      -1.819   0.244   0.000  0.00  0.00    -0.468 OA
ATOM     28  C   UNL     1      -2.485  -0.256   0.000  0.00  0.00    +0.253 C 
ENDBRANCH  17  27
BRANCH   4  29
ATOM     29  N   UNL     1       0.410  -1.802   0.000  0.00  0.00    -0.236 NA
BRANCH  29  30
ATOM     30  C   UNL     1      -0.477  -2.294   0.000  0.00  0.00    +0.093 C 
ATOM     31  C   UNL     1      -1.348  -1.769   0.000  0.00  0.00    +0.023 C 
ATOM     32  C   UNL     1      -0.498  -3.306   0.000  0.00  0.00    +0.023 C 
ENDBRANCH  29  30
ENDBRANCH   4  29
TORSDOF 6
ENDMDL
MODEL      129
REMARK  Name = 11-[(5-BROMO-2-HYDROXYPHENYL)METHYL]-7,11-DIAZATRICYCLO[7.3.1.0^(2,7)]TRIDECA-2,4-DIEN-6-ONE
REMARK  2 active torsions:
REMARK  status: ('A' for Active; 'I' for Inactive)
REMARK    1  A    between atoms: N_4  and  C_10
REMARK    2  A    between atoms: C_6  and  C_10
REMARK                            x       y       z     vdW  Elec       q    Type
REMARK                         _______ _______ _______ _____ _____    ______ ____
ROOT
ATOM      1  N   UNL     1      -2.164  -0.745   0.000  0.00  0.00    -0.299 N 
ATOM      2  C   UNL     1      -1.295  -1.244   0.000  0.00  0.00    +0.110 C 
ATOM      3  C   UNL     1      -0.423  -0.745   0.000  0.00  0.00    +0.039 C 
ATOM      4  C   UNL     1       0.434  -0.244   0.000  0.00  0.00    +0.074 C 
ATOM      5  N   UNL     1       0.434   0.757   0.000  0.00  0.00    -0.268 NA
ATOM      6  C   UNL     1      -0.429   1.276   0.000  0.00  0.00    +0.078 C 
ATOM      7  C   UNL     1      -1.293   0.771   0.000  0.00  0.00    +0.054 C 
ATOM      8  C   UNL     1      -0.423   0.261   0.000  0.00  0.00    +0.011 C 
ATOM      9  C   UNL     1      -3.027  -1.241   0.000  0.00  0.00    +0.261 A 
ATOM     10  O   UNL     1      -3.027  -2.240   0.000  0.00  0.00    -0.267 OA
ATOM     11  C   UNL     1      -3.886  -0.743   0.000  0.00  0.00    +0.061 A 
ATOM     12  C   UNL     1      -3.886   0.261   0.000  0.00  0.00    +0.006 A 
ATOM     13  C   UNL     1      -3.027   0.759   0.000  0.00  0.00    +0.013 A 
ATOM     14  C   UNL     1      -2.159   0.261   0.000  0.00  0.00    +0.041 A 
ENDROOT
BRANCH   5  15
ATOM     15  C   UNL     1       1.304   1.256   0.000  0.00  0.00    +0.102 C 
BRANCH  15  16
ATOM     16  C   UNL     1       2.161   0.750   0.000  0.00  0.00    +0.033 A 
ATOM     17  C   UNL     1       2.154  -0.247   0.000  0.00  0.00    +0.007 A 
ATOM     18  C   UNL     1       3.010  -0.752   0.000  0.00  0.00    +0.034 A 
ATOM     19 BR   UNL     1       3.008  -1.749   0.000  0.00  0.00    -0.049 Br
ATOM     20  C   UNL     1       3.886  -0.259   0.000  0.00  0.00    +0.010 A 
ATOM     21  C   UNL     1       3.886   0.743   0.000  0.00  0.00    +0.042 A 
ATOM     22  C   UNL     1       3.022   1.244   0.000  0.00  0.00    +0.193 A 
ATOM     23  O   UNL     1       3.022   2.240   0.000  0.00  0.00    -0.287 OA
ENDBRANCH  15  16
ENDBRANCH   5  15
TORSDOF 2
ENDMDL
MODEL      130
REMARK  Name = 2-{6-OXO-7,11-DIAZATRICYCLO[7.3.1.0^(2,7)]TRIDECA-2,4-DIEN-11-YL}-N-[3-(PENTYLSULFANYL)-1,2,4-THIADIAZOL-5-YL]ACETAMIDE
REMARK  7 active torsions:
REMARK  status: ('A' for Active; 'I' for Inactive)
REMARK    1  A    between atoms: C_6  and  S_24
REMARK    2  A    between atoms: N_9  and  C_18
REMARK    3  A    between atoms: C_12  and  C_18
REMARK    4  A    between atoms: S_24  and  C_25
REMARK    5  A    between atoms: C_25  and  C_26
REMARK    6  A    between atoms: C_26  and  C_28
REMARK    7  A    between atoms: C_27  and  C_28
REMARK                            x       y       z     vdW  Elec       q    Type
REMARK                         _______ _______ _______ _____ _____    ______ ____
ROOT
ATOM      1  C   UNL     1      -1.875   1.750   0.000  0.00  0.00    +0.161 C 
ENDROOT
BRANCH   1   8
ATOM      2  N   UNL     1      -5.334  -0.252   0.000  0.00  0.00    -0.299 N 
ATOM      3  C   UNL     1      -4.469  -0.759   0.000  0.00  0.00    +0.110 C 
ATOM      4  C   UNL     1      -3.605  -0.261   0.000  0.00  0.00    +0.039 C 
ATOM      5  C   UNL     1      -3.605   0.739   0.000  0.00  0.00    +0.011 C 
ATOM      6  C   UNL     1      -4.464   1.242   0.000  0.00  0.00    +0.054 C 
ATOM      7  C   UNL     1      -3.605   1.755   0.000  0.00  0.00    +0.078 C 
ATOM      8  N   UNL     1      -2.745   1.247   0.000  0.00  0.00    -0.265 NA
ATOM      9  C   UNL     1      -2.745   0.246   0.000  0.00  0.00    +0.074 C 
ATOM     10  C   UNL     1      -6.194  -0.749   0.000  0.00  0.00    +0.261 A 
ATOM     11  O   UNL     1      -6.189  -1.755   0.000  0.00  0.00    -0.267 OA
ATOM     12  C   UNL     1      -7.059  -0.252   0.000  0.00  0.00    +0.061 A 
ATOM     13  C   UNL     1      -7.059   0.744   0.000  0.00  0.00    +0.006 A 
ATOM     14  C   UNL     1      -6.194   1.247   0.000  0.00  0.00    +0.013 A 
ATOM     15  C   UNL     1      -5.329   0.744   0.000  0.00  0.00    +0.041 A 
ENDBRANCH   1   8
BRANCH   1  16
ATOM     16  C   UNL     1      -1.011   1.247   0.000  0.00  0.00    +0.264 C 
ATOM     17  O   UNL     1      -1.011   0.246   0.000  0.00  0.00    -0.271 OA
ATOM     18  N   UNL     1      -0.141   1.750   0.000  0.00  0.00    -0.152 NA
ATOM     19  C   UNL     1       0.724   1.247   0.000  0.00  0.00    +0.205 A 
ATOM     20  S   UNL     1       0.830   0.256   0.000  0.00  0.00    +0.052 S 
ATOM     21  N   UNL     1       1.810   0.050   0.000  0.00  0.00    -0.181 NA
ATOM     22  C   UNL     1       2.308   0.915   0.000  0.00  0.00    +0.198 A 
ATOM     23  N   UNL     1       1.644   1.664   0.000  0.00  0.00    -0.196 NA
BRANCH  22  24
ATOM     24  S   UNL     1       3.303   1.021   0.000  0.00  0.00    -0.075 S 
BRANCH  24  25
ATOM     25  C   UNL     1       3.891   0.211   0.000  0.00  0.00    +0.065 C 
BRANCH  25  26
ATOM     26  C   UNL     1       4.887   0.312   0.000  0.00  0.00    +0.012 C 
BRANCH  26  27
ATOM     27  C   UNL     1       5.475  -0.492   0.000  0.00  0.00    +0.001 C 
BRANCH  27  28
ATOM     28  C   UNL     1       6.465  -0.387   0.000  0.00  0.00    +0.000 C 
ATOM     29  C   UNL     1       7.059  -1.202   0.000  0.00  0.00    +0.000 C 
ENDBRANCH  27  28
ENDBRANCH  26  27
ENDBRANCH  25  26
ENDBRANCH  24  25
ENDBRANCH  22  24
ENDBRANCH   1  16
TORSDOF 7
ENDMDL
MODEL      131
REMARK  Name = (11Z)-4-hydroxy-4-(1-hydroxyethyl)-6,7,14-trimethyl-3,8,17-trioxo-2,9-dioxa-14-azabicyclo[9.5.1]heptadec-11-en-7-yl acetate
REMARK  3 active torsions:
REMARK  status: ('A' for Active; 'I' for Inactive)
REMARK    1  A    between atoms: C_1  and  C_19
REMARK    2  A    between atoms: C_3  and  O_12
REMARK    3  A    between atoms: O_12  and  C_15
REMARK                            x       y       z     vdW  Elec       q    Type
REMARK                         _______ _______ _______ _____ _____    ______ ____
ROOT
ATOM      1  C   UNL     1      -1.642   1.411   0.000  0.00  0.00    +0.235 C 
ATOM      2  O   UNL     1      -2.775   1.434   0.000  0.00  0.00    -0.212 OA
ATOM      3  C   UNL     1      -1.069   2.104   0.000  0.00  0.00    +0.061 C 
ATOM      4  C   UNL     1       0.353   2.393   0.000  0.00  0.00    +0.056 C 
ATOM      5  C   UNL     1       0.353   3.260   0.000  0.00  0.00    -0.001 C 
ATOM      6  C   UNL     1       2.052   2.168   0.000  0.00  0.00    +0.220 C 
ATOM      7  C   UNL     1       2.052   3.035   0.000  0.00  0.00    +0.055 C 
ATOM      8  C   UNL     1       2.648   1.451   0.000  0.00  0.00    +0.354 C 
ATOM      9  O   UNL     1       3.602   1.734   0.000  0.00  0.00    -0.246 OA
ATOM     10  O   UNL     1       2.648   0.497   0.000  0.00  0.00    -0.441 OA
ATOM     11  C   UNL     1       1.734  -0.191   0.000  0.00  0.00    +0.238 C 
ATOM     12  C   UNL     1       1.503  -0.983   0.000  0.00  0.00    +0.057 C 
ATOM     13  C   UNL     1       2.093  -1.815   0.000  0.00  0.00    -0.006 C 
ATOM     14  C   UNL     1       1.503  -2.630   0.000  0.00  0.00    +0.099 C 
ATOM     15  N   UNL     1       0.526  -2.318   0.000  0.00  0.00    -0.268 NA
ATOM     16  C   UNL     1       0.526  -3.295   0.000  0.00  0.00    +0.090 C 
ATOM     17  C   UNL     1      -0.428  -2.630   0.000  0.00  0.00    +0.077 C 
ATOM     18  C   UNL     1      -1.017  -1.815   0.000  0.00  0.00    +0.069 C 
ATOM     19  C   UNL     1      -0.428  -0.983   0.000  0.00  0.00    +0.231 C 
ATOM     20  O   UNL     1      -0.780  -0.104   0.000  0.00  0.00    -0.443 OA
ATOM     21  C   UNL     1       0.526  -1.295   0.000  0.00  0.00    +0.212 C 
ATOM     22  O   UNL     1       0.526  -0.283   0.000  0.00  0.00    -0.288 OA
ATOM     23  C   UNL     1      -1.642   0.364   0.000  0.00  0.00    +0.347 C 
ATOM     24  O   UNL     1      -2.428  -0.127   0.000  0.00  0.00    -0.247 OA
ENDROOT
BRANCH   1  25
ATOM     25  C   UNL     1      -2.648   2.428   0.000  0.00  0.00    +0.190 C 
ATOM     26  C   UNL     1      -2.474   3.295   0.000  0.00  0.00    +0.039 C 
ATOM     27  O   UNL     1      -3.602   2.301   0.000  0.00  0.00    -0.220 OA
ENDBRANCH   1  25
BRANCH   6  28
ATOM     28  O   UNL     1       0.908   1.549   0.000  0.00  0.00    -0.445 OA
BRANCH  28  29
ATOM     29  C   UNL     1       0.908   0.809   0.000  0.00  0.00    +0.318 C 
ATOM     30  C   UNL     1       0.353   0.399   0.000  0.00  0.00    +0.121 C 
ATOM     31  O   UNL     1       1.561   0.416   0.000  0.00  0.00    -0.250 OA
ENDBRANCH  28  29
ENDBRANCH   6  28
TORSDOF 3
ENDMDL
MODEL      132
REMARK  Name = 4-[3a,5a,9,10-tetrahydroxy-9a-(hydroxymethyl)-11a-methyl-7-[(3,4,5-trihydroxy-6-methyloxan-2-yl)oxy]-hexadecahydro-1H-cyclopenta[a]phenanthren-1-yl]-2,5-dihydrofuran-2-one
REMARK  4 active torsions:
REMARK  status: ('A' for Active; 'I' for Inactive)
REMARK    1  A    between atoms: C_1  and  C_33
REMARK    2  A    between atoms: C_7  and  O_22
REMARK    3  A    between atoms: C_10  and  C_12
REMARK    4  A    between atoms: O_22  and  C_23
REMARK                            x       y       z     vdW  Elec       q    Type
REMARK                         _______ _______ _______ _____ _____    ______ ____
ROOT
ATOM      1  C   UNL     1       0.169   0.583   0.000  0.00  0.00    +0.087 C 
ATOM      2  C   UNL     1      -0.627   1.036   0.000  0.00  0.00    +0.159 C 
ATOM      3  O   UNL     1      -1.290   1.720   0.000  0.00  0.00    -0.223 OA
ATOM      4  C   UNL     1      -1.422   0.583   0.000  0.00  0.00    +0.063 C 
ATOM      5  C   UNL     1      -1.422  -0.318   0.000  0.00  0.00    +0.123 C 
ATOM      6  C   UNL     1      -0.627  -0.770   0.000  0.00  0.00    +0.060 C 
ATOM      7  C   UNL     1       0.169  -0.318   0.000  0.00  0.00    +0.134 C 
ATOM      8  O   UNL     1       0.169  -1.218   0.000  0.00  0.00    -0.225 OA
ATOM      9  C   UNL     1       0.964  -0.770   0.000  0.00  0.00    +0.031 C 
ATOM     10  C   UNL     1       1.759  -0.318   0.000  0.00  0.00    +0.005 C 
ATOM     11  C   UNL     1       1.759   0.583   0.000  0.00  0.00    +0.031 C 
ATOM     12  C   UNL     1       2.555   1.036   0.000  0.00  0.00    +0.127 C 
ATOM     13  C   UNL     1       2.555   1.936   0.000  0.00  0.00    +0.032 C 
ATOM     14  C   UNL     1       2.532   2.864   0.000  0.00  0.00    +0.003 C 
ATOM     15  C   UNL     1       3.405   2.229   0.000  0.00  0.00    +0.024 C 
ATOM     16  C   UNL     1       3.935   1.511   0.000  0.00  0.00    +0.007 C 
ATOM     17  C   UNL     1       1.737   2.383   0.000  0.00  0.00    +0.036 C 
ATOM     18  C   UNL     1       0.964   1.936   0.000  0.00  0.00    +0.152 C 
ATOM     19  O   UNL     1       1.019   2.941   0.000  0.00  0.00    -0.223 OA
ATOM     20  O   UNL     1       2.555   0.130   0.000  0.00  0.00    -0.226 OA
ATOM     21  C   UNL     1       3.405   0.770   0.000  0.00  0.00    +0.031 C 
ATOM     22  C   UNL     1       0.964   1.036   0.000  0.00  0.00    +0.040 C 
ENDROOT
BRANCH  15  23
ATOM     23  C   UNL     1       3.670   3.074   0.000  0.00  0.00    +0.005 C 
ATOM     24  C   UNL     1       3.140   3.819   0.000  0.00  0.00    +0.231 C 
ATOM     25  O   UNL     1       3.670   4.532   0.000  0.00  0.00    -0.441 OA
ATOM     26  C   UNL     1       4.543   4.267   0.000  0.00  0.00    +0.341 C 
ATOM     27  O   UNL     1       5.289   4.797   0.000  0.00  0.00    -0.245 OA
ATOM     28  C   UNL     1       4.521   3.367   0.000  0.00  0.00    +0.077 C 
ENDBRANCH  15  23
BRANCH   1  29
ATOM     29  C   UNL     1       0.169   1.511   0.000  0.00  0.00    +0.187 C 
ATOM     30  O   UNL     1      -0.373   2.041   0.000  0.00  0.00    -0.220 OA
ENDBRANCH   1  29
BRANCH   5  31
ATOM     31  O   UNL     1      -2.218  -0.770   0.000  0.00  0.00    -0.331 OA
BRANCH  31  32
ATOM     32  C   UNL     1      -2.240  -2.853   0.000  0.00  0.00    +0.269 C 
ATOM     33  O   UNL     1      -3.024  -1.831   0.000  0.00  0.00    -0.328 OA
ATOM     34  C   UNL     1      -4.521  -1.831   0.000  0.00  0.00    +0.151 C 
ATOM     35  C   UNL     1      -4.482  -2.958   0.000  0.00  0.00    +0.035 C 
ATOM     36  C   UNL     1      -5.289  -2.853   0.000  0.00  0.00    +0.212 C 
ATOM     37  C   UNL     1      -4.521  -3.847   0.000  0.00  0.00    +0.220 C 
ATOM     38  O   UNL     1      -4.482  -4.642   0.000  0.00  0.00    -0.217 OA
ATOM     39  O   UNL     1      -5.289  -1.660   0.000  0.00  0.00    -0.218 OA
ATOM     40  C   UNL     1      -3.024  -3.847   0.000  0.00  0.00    +0.241 C 
ATOM     41  O   UNL     1      -3.035  -4.797   0.000  0.00  0.00    -0.215 OA
ENDBRANCH  31  32
ENDBRANCH   5  31
TORSDOF 4
ENDMDL
MODEL      133
REMARK  Name = 3,4-dimethoxy-6-methyl-5,7,8,15-tetrahydrobenzo[c][1,3]benzodioxolo[5,6-g]azecin-14(6H)-one
REMARK  2 active torsions:
REMARK  status: ('A' for Active; 'I' for Inactive)
REMARK    1  A    between atoms: C_5  and  O_23
REMARK    2  A    between atoms: C_16  and  O_24
REMARK                            x       y       z     vdW  Elec       q    Type
REMARK                         _______ _______ _______ _____ _____    ______ ____
ROOT
ATOM      1  C   UNL     1       1.635  -0.011   0.000  0.00  0.00    +0.027 A 
ATOM      2  C   UNL     1       1.635   0.957   0.000  0.00  0.00    +0.102 C 
ATOM      3  N   UNL     1       0.757   1.457   0.000  0.00  0.00    -0.267 NA
ATOM      4  C   UNL     1       1.614   1.954   0.000  0.00  0.00    +0.090 C 
ATOM      5  C   UNL     1       0.757   2.454   0.000  0.00  0.00    +0.077 C 
ATOM      6  C   UNL     1      -0.087   2.955   0.000  0.00  0.00    +0.044 C 
ATOM      7  C   UNL     1      -0.952   2.454   0.000  0.00  0.00    -0.015 A 
ATOM      8  C   UNL     1      -0.952   1.457   0.000  0.00  0.00    +0.034 A 
ATOM      9  C   UNL     1      -1.826   0.948   0.000  0.00  0.00    +0.043 A 
ATOM     10  C   UNL     1      -2.683   1.457   0.000  0.00  0.00    +0.176 A 
ATOM     11  C   UNL     1      -2.683   2.454   0.000  0.00  0.00    +0.176 A 
ATOM     12  O   UNL     1      -3.638   2.760   0.000  0.00  0.00    -0.435 OA
ATOM     13  C   UNL     1      -4.219   1.937   0.000  0.00  0.00    +0.429 C 
ATOM     14  O   UNL     1      -3.621   1.152   0.000  0.00  0.00    -0.435 OA
ATOM     15  C   UNL     1      -0.087   0.957   0.000  0.00  0.00    +0.177 C 
ATOM     16  O   UNL     1      -1.042   0.388   0.000  0.00  0.00    -0.291 OA
ATOM     17  C   UNL     1      -0.087  -0.028   0.000  0.00  0.00    +0.095 C 
ATOM     18  C   UNL     1      -1.826   2.963   0.000  0.00  0.00    +0.036 A 
ATOM     19  C   UNL     1       2.501  -0.498   0.000  0.00  0.00    +0.169 A 
ATOM     20  C   UNL     1       2.501  -1.508   0.000  0.00  0.00    +0.172 A 
ATOM     21  C   UNL     1       1.657  -2.017   0.000  0.00  0.00    +0.040 A 
ATOM     22  C   UNL     1       0.770  -1.508   0.000  0.00  0.00    -0.001 A 
ATOM     23  C   UNL     1       0.770  -0.520   0.000  0.00  0.00    -0.014 A 
ENDROOT
BRANCH  19  24
ATOM     24  O   UNL     1       3.354   0.011   0.000  0.00  0.00    -0.469 OA
ATOM     25  C   UNL     1       4.219  -0.469   0.000  0.00  0.00    +0.253 C 
ENDBRANCH  19  24
BRANCH  20  26
ATOM     26  O   UNL     1       3.388  -1.975   0.000  0.00  0.00    -0.468 OA
ATOM     27  C   UNL     1       3.388  -2.963   0.000  0.00  0.00    +0.253 C 
ENDBRANCH  20  26
TORSDOF 2
ENDMDL
MODEL      134
REMARK  Name = 3,4,10,11-tetramethoxy-7,8,12b,13-tetrahydro-5H-6-azatetraphene
REMARK  4 active torsions:
REMARK  status: ('A' for Active; 'I' for Inactive)
REMARK    1  A    between atoms: C_8  and  O_19
REMARK    2  A    between atoms: C_11  and  O_20
REMARK    3  A    between atoms: C_13  and  O_21
REMARK    4  A    between atoms: C_15  and  O_22
REMARK                            x       y       z     vdW  Elec       q    Type
REMARK                         _______ _______ _______ _____ _____    ______ ____
ROOT
ATOM      1  N   UNL     1       0.447   0.497   0.000  0.00  0.00    -0.266 NA
ATOM      2  C   UNL     1       0.447   1.490   0.000  0.00  0.00    +0.077 C 
ATOM      3  C   UNL     1      -0.420   1.986   0.000  0.00  0.00    +0.044 C 
ATOM      4  C   UNL     1      -1.283   1.490   0.000  0.00  0.00    -0.020 A 
ATOM      5  C   UNL     1      -1.283   0.497   0.000  0.00  0.00    -0.008 A 
ATOM      6  C   UNL     1      -2.123   0.000   0.000  0.00  0.00    +0.037 A 
ATOM      7  C   UNL     1      -2.985   0.497   0.000  0.00  0.00    +0.172 A 
ATOM      8  C   UNL     1      -2.985   1.490   0.000  0.00  0.00    +0.172 A 
ATOM      9  C   UNL     1      -2.123   1.986   0.000  0.00  0.00    +0.036 A 
ATOM     10  C   UNL     1       1.310   0.000   0.000  0.00  0.00    +0.102 C 
ATOM     11  C   UNL     1       1.310  -0.999   0.000  0.00  0.00    +0.027 A 
ATOM     12  C   UNL     1       2.150  -1.523   0.000  0.00  0.00    +0.169 A 
ATOM     13  C   UNL     1       2.150  -2.489   0.000  0.00  0.00    +0.172 A 
ATOM     14  C   UNL     1       1.255  -3.013   0.000  0.00  0.00    +0.040 A 
ATOM     15  C   UNL     1       0.393  -2.516   0.000  0.00  0.00    -0.001 A 
ATOM     16  C   UNL     1       0.420  -1.495   0.000  0.00  0.00    -0.020 A 
ATOM     17  C   UNL     1      -0.448  -0.999   0.000  0.00  0.00    +0.047 C 
ATOM     18  C   UNL     1      -0.420   0.000   0.000  0.00  0.00    +0.085 C 
ENDROOT
BRANCH   8  19
ATOM     19  O   UNL     1      -3.875   2.014   0.000  0.00  0.00    -0.468 OA
ATOM     20  C   UNL     1      -3.875   3.013   0.000  0.00  0.00    +0.253 C 
ENDBRANCH   8  19
BRANCH   7  21
ATOM     21  O   UNL     1      -3.875   0.000   0.000  0.00  0.00    -0.468 OA
ATOM     22  C   UNL     1      -3.875  -1.026   0.000  0.00  0.00    +0.253 C 
ENDBRANCH   7  21
BRANCH  12  23
ATOM     23  O   UNL     1       3.040  -1.026   0.000  0.00  0.00    -0.469 OA
ATOM     24  C   UNL     1       3.875  -1.572   0.000  0.00  0.00    +0.253 C 
ENDBRANCH  12  23
BRANCH  13  25
ATOM     25  O   UNL     1       3.012  -2.963   0.000  0.00  0.00    -0.468 OA
ATOM     26  C   UNL     1       3.853  -2.440   0.000  0.00  0.00    +0.253 C 
ENDBRANCH  13  25
TORSDOF 4
ENDMDL
MODEL      135
REMARK  Name = 3,4,5-TRIMETHOXY-10,14-BIS(METHYLAMINO)TRICYCLO[9.5.0.0^(2,7)]HEXADECA-1(16),2,4,6,11,14-HEXAEN-13-ONE
REMARK  5 active torsions:
REMARK  status: ('A' for Active; 'I' for Inactive)
REMARK    1  A    between atoms: C_4  and  O_19
REMARK    2  A    between atoms: C_6  and  O_20
REMARK    3  A    between atoms: C_10  and  O_22
REMARK    4  A    between atoms: C_11  and  N_18
REMARK    5  A    between atoms: C_14  and  N_21
REMARK                            x       y       z     vdW  Elec       q    Type
REMARK                         _______ _______ _______ _____ _____    ______ ____
ROOT
ATOM      1  C   UNL     1       0.302  -0.091   0.000  0.00  0.00    -0.000 A 
ATOM      2  C   UNL     1      -0.326  -0.879   0.000  0.00  0.00    +0.001 A 
ATOM      3  C   UNL     1      -0.101  -1.864   0.000  0.00  0.00    +0.018 A 
ATOM      4  C   UNL     1       0.785  -2.267   0.000  0.00  0.00    +0.084 A 
ATOM      5  C   UNL     1       1.723  -1.850   0.000  0.00  0.00    +0.208 A 
ATOM      6  O   UNL     1       2.511  -2.469   0.000  0.00  0.00    -0.285 OA
ATOM      7  C   UNL     1       1.967  -0.879   0.000  0.00  0.00    +0.040 A 
ATOM      8  C   UNL     1      -0.284   0.739   0.000  0.00  0.00    +0.033 A 
ATOM      9  C   UNL     1      -0.045   1.709   0.000  0.00  0.00    -0.016 A 
ATOM     10  C   UNL     1       0.828   2.145   0.000  0.00  0.00    +0.028 C 
ATOM     11  C   UNL     1       1.742   1.714   0.000  0.00  0.00    +0.019 C 
ATOM     12  C   UNL     1       1.990   0.739   0.000  0.00  0.00    +0.094 C 
ATOM     13  C   UNL     1      -0.790   2.398   0.000  0.00  0.00    +0.036 A 
ATOM     14  C   UNL     1      -1.747   2.117   0.000  0.00  0.00    +0.175 A 
ATOM     15  C   UNL     1      -1.986   1.165   0.000  0.00  0.00    +0.206 A 
ATOM     16  C   UNL     1      -1.259   0.457   0.000  0.00  0.00    +0.175 A 
ATOM     17  C   UNL     1       1.334  -0.091   0.000  0.00  0.00    -0.010 A 
ENDROOT
BRANCH   4  18
ATOM     18  N   UNL     1       0.767  -3.271   0.000  0.00  0.00    -0.329 N 
ATOM     19  H   UNL     1      -0.091  -3.763   0.000  0.00  0.00    +0.147 HD
ATOM     20  C   UNL     1       1.615  -3.763   0.000  0.00  0.00    +0.109 C 
ENDBRANCH   4  18
BRANCH  12  21
ATOM     21  N   UNL     1       2.656  -0.073   0.000  0.00  0.00    -0.298 NA
ATOM     22  H   UNL     1       3.636   0.082   0.000  0.00  0.00    +0.123 HD
ATOM     23  C   UNL     1       3.003  -0.936   0.000  0.00  0.00    +0.086 C 
ENDBRANCH  12  21
BRANCH  15  24
ATOM     24  O   UNL     1      -2.942   0.907   0.000  0.00  0.00    -0.465 OA
ATOM     25  C   UNL     1      -3.636   1.615   0.000  0.00  0.00    +0.253 C 
ENDBRANCH  15  24
BRANCH  14  26
ATOM     26  O   UNL     1      -2.455   2.783   0.000  0.00  0.00    -0.468 OA
ATOM     27  C   UNL     1      -2.230   3.763   0.000  0.00  0.00    +0.253 C 
ENDBRANCH  14  26
BRANCH  16  28
ATOM     28  O   UNL     1      -1.508  -0.513   0.000  0.00  0.00    -0.468 OA
ATOM     29  C   UNL     1      -2.455  -0.767   0.000  0.00  0.00    +0.253 C 
ENDBRANCH  16  28
TORSDOF 5
ENDMDL
MODEL      136
REMARK  Name = 9a-formyl-3a,5a-dihydroxy-11a-methyl-1-(5-oxo-2,5-dihydrofuran-3-yl)-hexadecahydro-1H-cyclopenta[a]phenanthren-7-yl acetate
REMARK  4 active torsions:
REMARK  status: ('A' for Active; 'I' for Inactive)
REMARK    1  A    between atoms: C_2  and  C_22
REMARK    2  A    between atoms: C_7  and  C_8
REMARK    3  A    between atoms: C_21  and  O_24
REMARK    4  A    between atoms: C_23  and  O_24
REMARK                            x       y       z     vdW  Elec       q    Type
REMARK                         _______ _______ _______ _____ _____    ______ ____
ROOT
ATOM      1  C   UNL     1       1.839  -0.763   0.000  0.00  0.00    +0.123 C 
ATOM      2  O   UNL     1       1.839  -1.853   0.000  0.00  0.00    -0.226 OA
ATOM      3  C   UNL     1       2.734  -1.053   0.000  0.00  0.00    +0.030 C 
ATOM      4  C   UNL     1       3.302  -0.284   0.000  0.00  0.00    +0.007 C 
ATOM      5  C   UNL     1       2.734   0.474   0.000  0.00  0.00    +0.024 C 
ATOM      6  C   UNL     1       0.981  -1.268   0.000  0.00  0.00    +0.038 C 
ATOM      7  C   UNL     1       0.981  -2.242   0.000  0.00  0.00    +0.001 C 
ATOM      8  C   UNL     1       0.145  -2.710   0.000  0.00  0.00    +0.031 C 
ATOM      9  C   UNL     1      -0.713  -2.242   0.000  0.00  0.00    +0.136 C 
ATOM     10  C   UNL     1      -0.713  -1.268   0.000  0.00  0.00    +0.081 C 
ATOM     11  C   UNL     1      -1.597  -0.763   0.000  0.00  0.00    +0.013 C 
ATOM     12  C   UNL     1      -2.381  -1.268   0.000  0.00  0.00    +0.044 C 
ATOM     13  C   UNL     1      -2.381  -2.242   0.000  0.00  0.00    +0.171 C 
ATOM     14  O   UNL     1      -0.713  -3.505   0.000  0.00  0.00    -0.225 OA
ATOM     15  C   UNL     1      -1.597  -2.710   0.000  0.00  0.00    +0.074 C 
ATOM     16  C   UNL     1       0.145  -0.763   0.000  0.00  0.00    +0.021 C 
ATOM     17  C   UNL     1       0.145   0.210   0.000  0.00  0.00    -0.004 C 
ATOM     18  C   UNL     1       0.981   0.700   0.000  0.00  0.00    +0.002 C 
ATOM     19  C   UNL     1       1.839   0.210   0.000  0.00  0.00    +0.029 C 
ATOM     20  C   UNL     1       1.839   1.205   0.000  0.00  0.00    +0.003 C 
ENDROOT
BRANCH   5  21
ATOM     21  C   UNL     1       3.102   1.484   0.000  0.00  0.00    +0.005 C 
ATOM     22  C   UNL     1       4.113   1.826   0.000  0.00  0.00    +0.231 C 
ATOM     23  O   UNL     1       4.113   2.863   0.000  0.00  0.00    -0.441 OA
ATOM     24  C   UNL     1       3.102   3.226   0.000  0.00  0.00    +0.341 C 
ATOM     25  O   UNL     1       2.734   4.253   0.000  0.00  0.00    -0.245 OA
ATOM     26  C   UNL     1       2.455   2.305   0.000  0.00  0.00    +0.077 C 
ENDBRANCH   5  21
BRANCH  10  27
ATOM     27  C   UNL     1      -0.713  -0.284   0.000  0.00  0.00    +0.209 C 
ATOM     28  O   UNL     1      -1.571   0.210   0.000  0.00  0.00    -0.288 OA
ENDBRANCH  10  27
BRANCH  13  29
ATOM     29  O   UNL     1      -3.266  -2.758   0.000  0.00  0.00    -0.452 OA
BRANCH  29  30
ATOM     30  C   UNL     1      -3.266  -3.747   0.000  0.00  0.00    +0.317 C 
ATOM     31  C   UNL     1      -2.408  -4.253   0.000  0.00  0.00    +0.121 C 
ATOM     32  O   UNL     1      -4.113  -4.237   0.000  0.00  0.00    -0.250 OA
ENDBRANCH  29  30
ENDBRANCH  13  29
TORSDOF 4
ENDMDL
MODEL      137
REMARK  Name = 3a,5a-dihydroxy-7-[(4-hydroxy-6-methyl-5-{[3,4,5-trihydroxy-6-(hydroxymethyl)oxan-2-yl]oxy}oxan-2-yl)oxy]-11a-methyl-1-(5-oxo-2,5-dihydrofuran-3-yl)-hexadecahydro-1H-cyclopenta[a]phenanthrene-9a-carba ldehyde
REMARK  7 active torsions:
REMARK  status: ('A' for Active; 'I' for Inactive)
REMARK    1  A    between atoms: C_2  and  C_34
REMARK    2  A    between atoms: C_4  and  O_13
REMARK    3  A    between atoms: C_11  and  C_14
REMARK    4  A    between atoms: C_12  and  O_13
REMARK    5  A    between atoms: C_16  and  C_47
REMARK    6  A    between atoms: C_17  and  O_35
REMARK    7  A    between atoms: O_35  and  C_36
REMARK                            x       y       z     vdW  Elec       q    Type
REMARK                         _______ _______ _______ _____ _____    ______ ____
ROOT
ATOM      1  C   UNL     1       4.122   1.444   0.000  0.00  0.00    +0.123 C 
ATOM      2  O   UNL     1       4.109   0.388   0.000  0.00  0.00    -0.226 OA
ATOM      3  C   UNL     1       4.913   1.171   0.000  0.00  0.00    +0.030 C 
ATOM      4  C   UNL     1       5.388   1.864   0.000  0.00  0.00    +0.007 C 
ATOM      5  C   UNL     1       4.913   2.535   0.000  0.00  0.00    +0.024 C 
ATOM      6  C   UNL     1       3.353   1.004   0.000  0.00  0.00    +0.038 C 
ATOM      7  C   UNL     1       3.353   0.151   0.000  0.00  0.00    +0.001 C 
ATOM      8  C   UNL     1       2.647  -0.255   0.000  0.00  0.00    +0.031 C 
ATOM      9  C   UNL     1       1.892   0.151   0.000  0.00  0.00    +0.135 C 
ATOM     10  C   UNL     1       1.892   1.004   0.000  0.00  0.00    +0.081 C 
ATOM     11  C   UNL     1       1.122   1.444   0.000  0.00  0.00    +0.012 C 
ATOM     12  C   UNL     1       0.416   1.004   0.000  0.00  0.00    +0.030 C 
ATOM     13  C   UNL     1       0.416   0.151   0.000  0.00  0.00    +0.120 C 
ATOM     14  O   UNL     1       1.892  -0.990   0.000  0.00  0.00    -0.225 OA
ATOM     15  C   UNL     1       1.122  -0.255   0.000  0.00  0.00    +0.060 C 
ATOM     16  C   UNL     1       2.647   1.444   0.000  0.00  0.00    +0.021 C 
ATOM     17  C   UNL     1       2.647   2.283   0.000  0.00  0.00    -0.004 C 
ATOM     18  C   UNL     1       3.353   2.717   0.000  0.00  0.00    +0.002 C 
ATOM     19  C   UNL     1       4.122   2.283   0.000  0.00  0.00    +0.029 C 
ATOM     20  C   UNL     1       4.109   3.291   0.000  0.00  0.00    +0.003 C 
ENDROOT
BRANCH   5  21
ATOM     21  C   UNL     1       5.269   3.325   0.000  0.00  0.00    +0.005 C 
ATOM     22  C   UNL     1       6.109   3.472   0.000  0.00  0.00    +0.231 C 
ATOM     23  O   UNL     1       6.228   4.312   0.000  0.00  0.00    -0.441 OA
ATOM     24  C   UNL     1       5.500   4.696   0.000  0.00  0.00    +0.341 C 
ATOM     25  O   UNL     1       5.186   5.738   0.000  0.00  0.00    -0.245 OA
ATOM     26  C   UNL     1       4.899   4.095   0.000  0.00  0.00    +0.077 C 
ENDBRANCH   5  21
BRANCH  10  27
ATOM     27  C   UNL     1       1.892   1.864   0.000  0.00  0.00    +0.209 C 
ATOM     28  O   UNL     1       1.122   2.283   0.000  0.00  0.00    -0.288 OA
ENDBRANCH  10  27
BRANCH  13  29
ATOM     29  O   UNL     1      -0.318  -0.304   0.000  0.00  0.00    -0.333 OA
BRANCH  29  30
ATOM     30  C   UNL     1      -0.318  -1.458   0.000  0.00  0.00    +0.238 C 
ATOM     31  C   UNL     1      -1.060  -2.381   0.000  0.00  0.00    +0.097 C 
ATOM     32  C   UNL     1      -2.451  -2.381   0.000  0.00  0.00    +0.186 C 
ATOM     33  O   UNL     1      -2.451  -3.220   0.000  0.00  0.00    -0.220 OA
ATOM     34  C   UNL     1      -3.158  -1.458   0.000  0.00  0.00    +0.175 C 
ATOM     35  C   UNL     1      -2.451  -0.507   0.000  0.00  0.00    +0.147 C 
ATOM     36  C   UNL     1      -2.451   0.472   0.000  0.00  0.00    +0.035 C 
ATOM     37  O   UNL     1      -1.060  -0.507   0.000  0.00  0.00    -0.330 OA
BRANCH  34  38
ATOM     38  O   UNL     1      -3.158  -2.738   0.000  0.00  0.00    -0.326 OA
BRANCH  38  39
ATOM     39  C   UNL     1      -3.158  -3.878   0.000  0.00  0.00    +0.270 C 
ATOM     40  O   UNL     1      -3.948  -2.857   0.000  0.00  0.00    -0.326 OA
ATOM     41  C   UNL     1      -5.472  -2.857   0.000  0.00  0.00    +0.183 C 
ATOM     42  C   UNL     1      -6.228  -3.878   0.000  0.00  0.00    +0.214 C 
ATOM     43  C   UNL     1      -5.472  -4.850   0.000  0.00  0.00    +0.220 C 
ATOM     44  O   UNL     1      -5.472  -3.962   0.000  0.00  0.00    -0.217 OA
ATOM     45  O   UNL     1      -6.228  -5.039   0.000  0.00  0.00    -0.218 OA
ATOM     46  C   UNL     1      -3.948  -4.850   0.000  0.00  0.00    +0.241 C 
ATOM     47  O   UNL     1      -3.948  -5.738   0.000  0.00  0.00    -0.215 OA
BRANCH  41  48
ATOM     48  C   UNL     1      -5.493  -1.815   0.000  0.00  0.00    +0.214 C 
ATOM     49  O   UNL     1      -4.514  -1.192   0.000  0.00  0.00    -0.218 OA
ENDBRANCH  41  48
ENDBRANCH  38  39
ENDBRANCH  34  38
ENDBRANCH  29  30
ENDBRANCH  13  29
TORSDOF 7
ENDMDL
MODEL      138
REMARK  Name = (14R)-13-ethyl-8-methyl-8,15-diazahexacyclo[14.2.1.0~1,9~.0~2,7~.0~10,15~.0~12,17~]nonadeca-2(7),3,5-triene-14,18-diol
REMARK  1 active torsions:
REMARK  status: ('A' for Active; 'I' for Inactive)
REMARK    1  A    between atoms: C_14  and  C_21
REMARK                            x       y       z     vdW  Elec       q    Type
REMARK                         _______ _______ _______ _____ _____    ______ ____
ROOT
ATOM      1  C   UNL     1      -0.748   1.398   0.000  0.00  0.00    +0.067 C 
ATOM      2  C   UNL     1       0.384   1.822   0.000  0.00  0.00    +0.024 C 
ATOM      3  C   UNL     1       1.323   1.382   0.000  0.00  0.00    +0.063 C 
ATOM      4  C   UNL     1       0.855   0.632   0.000  0.00  0.00    +0.046 C 
ATOM      5  C   UNL     1       1.311  -1.822   0.000  0.00  0.00    +0.009 C 
ATOM      6  C   UNL     1       0.527  -1.379   0.000  0.00  0.00    +0.018 C 
ATOM      7  C   UNL     1       0.527  -0.531   0.000  0.00  0.00    +0.078 C 
ATOM      8  C   UNL     1       2.045  -1.379   0.000  0.00  0.00    +0.046 C 
ATOM      9  C   UNL     1       2.045  -0.531   0.000  0.00  0.00    +0.212 C 
ATOM     10  O   UNL     1       2.813  -0.029   0.000  0.00  0.00    -0.205 OA
ATOM     11  N   UNL     1       1.311  -0.060   0.000  0.00  0.00    -0.249 NA
ATOM     12  C   UNL     1      -2.181   1.398   0.000  0.00  0.00    -0.005 A 
ATOM     13  C   UNL     1      -2.901   1.777   0.000  0.00  0.00    -0.003 A 
ATOM     14  C   UNL     1      -3.594   1.398   0.000  0.00  0.00    -0.000 A 
ATOM     15  C   UNL     1      -3.594   0.547   0.000  0.00  0.00    +0.001 A 
ATOM     16  C   UNL     1      -2.901   0.190   0.000  0.00  0.00    +0.014 A 
ATOM     17  C   UNL     1      -2.181   0.547   0.000  0.00  0.00    +0.044 A 
ATOM     18  N   UNL     1      -1.431   0.190   0.000  0.00  0.00    -0.306 N 
ATOM     19  C   UNL     1      -1.431  -0.705   0.000  0.00  0.00    +0.112 C 
ATOM     20  C   UNL     1      -0.163   0.632   0.000  0.00  0.00    +0.158 C 
ATOM     21  O   UNL     1       0.147   1.208   0.000  0.00  0.00    -0.223 OA
ATOM     22  C   UNL     1      -0.748   0.547   0.000  0.00  0.00    +0.094 C 
ENDROOT
BRANCH   8  23
ATOM     23  C   UNL     1       2.829  -1.806   0.000  0.00  0.00    +0.004 C 
ATOM     24  C   UNL     1       3.594  -1.319   0.000  0.00  0.00    +0.000 C 
ENDBRANCH   8  23
TORSDOF 1
ENDMDL
MODEL      139
REMARK  Name = 8,8-dimethyl-2-oxo-2H,8H,9H,10H-pyrano[2,3-h]chromen-9-yl (2E)-2-methylbut-2-enoate
REMARK  3 active torsions:
REMARK  status: ('A' for Active; 'I' for Inactive)
REMARK    1  A    between atoms: C_6  and  O_10
REMARK    2  A    between atoms: C_6  and  C_14
REMARK    3  A    between atoms: C_9  and  O_10
REMARK                            x       y       z     vdW  Elec       q    Type
REMARK                         _______ _______ _______ _____ _____    ______ ____
ROOT
ATOM      1  C   UNL     1      -0.271   1.769   0.000  0.00  0.00    +0.050 A 
ATOM      2  C   UNL     1      -0.271   0.812   0.000  0.00  0.00    +0.080 C 
ATOM      3  C   UNL     1      -1.091   0.350   0.000  0.00  0.00    +0.210 C 
ATOM      4  C   UNL     1      -1.935   0.812   0.000  0.00  0.00    +0.170 C 
ATOM      5  O   UNL     1      -1.963   1.769   0.000  0.00  0.00    -0.479 OA
ATOM      6  C   UNL     1      -2.892   1.034   0.000  0.00  0.00    +0.047 C 
ATOM      7  C   UNL     1      -2.755   0.322   0.000  0.00  0.00    +0.047 C 
ATOM      8  C   UNL     1      -1.114   2.265   0.000  0.00  0.00    +0.137 A 
ATOM      9  C   UNL     1      -1.114   3.251   0.000  0.00  0.00    +0.037 A 
ATOM     10  C   UNL     1      -0.271   3.712   0.000  0.00  0.00    +0.006 A 
ATOM     11  C   UNL     1       0.550   3.251   0.000  0.00  0.00    +0.035 A 
ATOM     12  C   UNL     1       1.399   3.712   0.000  0.00  0.00    +0.010 A 
ATOM     13  C   UNL     1       2.248   3.251   0.000  0.00  0.00    +0.082 A 
ATOM     14  C   UNL     1       2.248   2.265   0.000  0.00  0.00    +0.346 A 
ATOM     15  O   UNL     1       3.097   1.769   0.000  0.00  0.00    -0.244 OA
ATOM     16  O   UNL     1       1.399   1.769   0.000  0.00  0.00    -0.421 OA
ATOM     17  C   UNL     1       0.550   2.265   0.000  0.00  0.00    +0.148 A 
ENDROOT
BRANCH   3  18
ATOM     18  O   UNL     1      -1.091  -0.635   0.000  0.00  0.00    -0.445 OA
BRANCH  18  19
ATOM     19  C   UNL     1      -2.060  -1.125   0.000  0.00  0.00    +0.337 C 
ATOM     20  O   UNL     1      -2.977  -0.487   0.000  0.00  0.00    -0.245 OA
BRANCH  19  21
ATOM     21  C   UNL     1      -2.088  -2.083   0.000  0.00  0.00    +0.049 C 
ATOM     22  C   UNL     1      -3.097  -2.561   0.000  0.00  0.00    +0.037 C 
ATOM     23  C   UNL     1      -1.023  -2.561   0.000  0.00  0.00    -0.024 C 
ATOM     24  C   UNL     1      -1.023  -3.712   0.000  0.00  0.00    +0.031 C 
ENDBRANCH  19  21
ENDBRANCH  18  19
ENDBRANCH   3  18
TORSDOF 3
ENDMDL
MODEL      140
REMARK  Name = 4,9-dimethoxy-7H-furo[3,2-g]chromen-7-one
REMARK  2 active torsions:
REMARK  status: ('A' for Active; 'I' for Inactive)
REMARK    1  A    between atoms: C_3  and  O_13
REMARK    2  A    between atoms: C_6  and  O_14
REMARK                            x       y       z     vdW  Elec       q    Type
REMARK                         _______ _______ _______ _____ _____    ______ ____
ROOT
ATOM      1  C   UNL     1       0.329  -0.490   0.000  0.00  0.00    +0.188 A 
ATOM      2  O   UNL     1       1.194  -0.978   0.000  0.00  0.00    -0.418 OA
ATOM      3  C   UNL     1       2.054  -0.490   0.000  0.00  0.00    +0.346 A 
ATOM      4  O   UNL     1       2.925  -0.998   0.000  0.00  0.00    -0.244 OA
ATOM      5  C   UNL     1       2.054   0.525   0.000  0.00  0.00    +0.082 A 
ATOM      6  C   UNL     1       1.194   1.008   0.000  0.00  0.00    +0.013 A 
ATOM      7  C   UNL     1      -0.536  -0.978   0.000  0.00  0.00    +0.208 A 
ATOM      8  C   UNL     1      -1.396  -0.490   0.000  0.00  0.00    +0.185 A 
ATOM      9  O   UNL     1      -2.366  -0.797   0.000  0.00  0.00    -0.447 OA
ATOM     10  C   UNL     1      -2.925   0.018   0.000  0.00  0.00    +0.180 A 
ATOM     11  C   UNL     1      -2.366   0.827   0.000  0.00  0.00    +0.047 A 
ATOM     12  C   UNL     1      -1.396   0.525   0.000  0.00  0.00    +0.075 A 
ATOM     13  C   UNL     1      -0.536   1.008   0.000  0.00  0.00    +0.145 A 
ATOM     14  C   UNL     1       0.329   0.525   0.000  0.00  0.00    +0.072 A 
ENDROOT
BRANCH   7  15
ATOM     15  O   UNL     1      -0.536  -1.994   0.000  0.00  0.00    -0.465 OA
ATOM     16  C   UNL     1       0.329  -2.502   0.000  0.00  0.00    +0.253 C 
ENDBRANCH   7  15
BRANCH  13  17
ATOM     17  O   UNL     1      -0.536   2.019   0.000  0.00  0.00    -0.471 OA
ATOM     18  C   UNL     1       0.329   2.502   0.000  0.00  0.00    +0.252 C 
ENDBRANCH  13  17
TORSDOF 2
ENDMDL
MODEL      141
REMARK  Name = methyl (2alpha,18beta)-3,4-didehydroibogamine-18-carboxylate
REMARK  3 active torsions:
REMARK  status: ('A' for Active; 'I' for Inactive)
REMARK    1  A    between atoms: C_1  and  C_8
REMARK    2  A    between atoms: C_7  and  C_19
REMARK    3  A    between atoms: C_8  and  O_18
REMARK                            x       y       z     vdW  Elec       q    Type
REMARK                         _______ _______ _______ _____ _____    ______ ____
ROOT
ATOM      1  C   UNL     1       0.455   0.061   0.000  0.00  0.00    +0.137 C 
ATOM      2  C   UNL     1       0.489  -0.815   0.000  0.00  0.00    +0.023 C 
ATOM      3  C   UNL     1       1.297   0.051   0.000  0.00  0.00    +0.038 C 
ATOM      4  C   UNL     1       1.847   1.647   0.000  0.00  0.00    +0.076 C 
ATOM      5  N   UNL     1       0.947   1.740   0.000  0.00  0.00    -0.274 NA
ATOM      6  C   UNL     1       0.104   2.207   0.000  0.00  0.00    +0.077 C 
ATOM      7  C   UNL     1      -0.805   1.837   0.000  0.00  0.00    +0.045 C 
ATOM      8  C   UNL     1      -1.063   0.878   0.000  0.00  0.00    -0.005 A 
ATOM      9  C   UNL     1      -1.998   0.596   0.000  0.00  0.00    +0.015 A 
ATOM     10  C   UNL     1      -1.998  -0.406   0.000  0.00  0.00    +0.081 A 
ATOM     11  C   UNL     1      -2.840  -0.898   0.000  0.00  0.00    +0.019 A 
ATOM     12  C   UNL     1      -3.701  -0.406   0.000  0.00  0.00    +0.002 A 
ATOM     13  C   UNL     1      -3.701   0.596   0.000  0.00  0.00    +0.000 A 
ATOM     14  N   UNL     1      -1.063  -0.689   0.000  0.00  0.00    -0.249 NA
ATOM     15  C   UNL     1      -2.840   1.088   0.000  0.00  0.00    +0.001 A 
ATOM     16  C   UNL     1       2.314   0.280   0.000  0.00  0.00    -0.033 C 
ATOM     17  C   UNL     1       2.207   0.888   0.000  0.00  0.00    -0.038 C 
ATOM     18  C   UNL     1       1.087   0.786   0.000  0.00  0.00    +0.108 C 
ATOM     19  C   UNL     1      -0.528   0.104   0.000  0.00  0.00    +0.066 A 
ENDROOT
BRANCH  17  20
ATOM     20  C   UNL     1       2.757   1.462   0.000  0.00  0.00    +0.023 C 
ATOM     21  C   UNL     1       3.701   1.506   0.000  0.00  0.00    +0.005 C 
ENDBRANCH  17  20
BRANCH   1  22
ATOM     22  C   UNL     1      -0.270  -1.482   0.000  0.00  0.00    +0.323 C 
ATOM     23  O   UNL     1      -1.307  -1.433   0.000  0.00  0.00    -0.250 OA
BRANCH  22  24
ATOM     24  O   UNL     1      -0.012  -2.207   0.000  0.00  0.00    -0.444 OA
ATOM     25  C   UNL     1       1.190  -2.066   0.000  0.00  0.00    +0.256 C 
ENDBRANCH  22  24
ENDBRANCH   1  22
TORSDOF 3
ENDMDL
MODEL      142
REMARK  Name = (9Z)-9-(hydroxyimino)-8,8-dimethyl-2H,8H,9H,10H-pyrano[2,3-h]chromen-2-one
REMARK  0 active torsions:
REMARK  status: ('A' for Active; 'I' for Inactive)
REMARK                            x       y       z     vdW  Elec       q    Type
REMARK                         _______ _______ _______ _____ _____    ______ ____
ROOT
ATOM      1  C   UNL     1      -0.402   0.503   0.000  0.00  0.00    +0.052 A 
ATOM      2  C   UNL     1      -0.431  -0.497   0.000  0.00  0.00    +0.081 C 
ATOM      3  C   UNL     1      -1.292  -1.000   0.000  0.00  0.00    +0.120 C 
ATOM      4  N   UNL     1      -1.292  -2.000   0.000  0.00  0.00    -0.034 NA
ATOM      5  O   UNL     1      -2.153  -2.497   0.000  0.00  0.00    -0.144 OA
ATOM      6  C   UNL     1      -2.153  -0.497   0.000  0.00  0.00    +0.168 C 
ATOM      7  O   UNL     1      -2.153   0.503   0.000  0.00  0.00    -0.477 OA
ATOM      8  C   UNL     1      -3.009  -1.000   0.000  0.00  0.00    +0.050 C 
ATOM      9  C   UNL     1      -3.096  -0.220   0.000  0.00  0.00    +0.050 C 
ATOM     10  C   UNL     1      -1.263   1.000   0.000  0.00  0.00    +0.138 A 
ATOM     11  C   UNL     1      -1.263   2.000   0.000  0.00  0.00    +0.037 A 
ATOM     12  C   UNL     1      -0.402   2.497   0.000  0.00  0.00    +0.006 A 
ATOM     13  C   UNL     1       0.460   2.000   0.000  0.00  0.00    +0.035 A 
ATOM     14  C   UNL     1       1.344   2.497   0.000  0.00  0.00    +0.010 A 
ATOM     15  C   UNL     1       2.205   2.000   0.000  0.00  0.00    +0.082 A 
ATOM     16  C   UNL     1       2.205   1.000   0.000  0.00  0.00    +0.346 A 
ATOM     17  O   UNL     1       3.096   0.503   0.000  0.00  0.00    -0.244 OA
ATOM     18  O   UNL     1       1.344   0.503   0.000  0.00  0.00    -0.421 OA
ATOM     19  C   UNL     1       0.460   1.000   0.000  0.00  0.00    +0.148 A 
ENDROOT
TORSDOF 0
ENDMDL
MODEL      143
REMARK  Name = 2-(propan-2-yl)-7H-furo[3,2-g]chromen-7-one
REMARK  1 active torsions:
REMARK  status: ('A' for Active; 'I' for Inactive)
REMARK    1  A    between atoms: C_1  and  C_15
REMARK                            x       y       z     vdW  Elec       q    Type
REMARK                         _______ _______ _______ _____ _____    ______ ____
ROOT
ATOM      1  C   UNL     1      -2.188   0.015   0.000  0.00  0.00    +0.122 A 
ATOM      2  C   UNL     1      -1.637   0.783   0.000  0.00  0.00    +0.036 A 
ATOM      3  C   UNL     1      -0.674   0.484   0.000  0.00  0.00    +0.037 A 
ATOM      4  C   UNL     1      -0.674  -0.479   0.000  0.00  0.00    +0.148 A 
ATOM      5  C   UNL     1       0.203  -1.006   0.000  0.00  0.00    +0.075 A 
ATOM      6  C   UNL     1       1.087  -0.507   0.000  0.00  0.00    +0.152 A 
ATOM      7  C   UNL     1       1.087   0.507   0.000  0.00  0.00    +0.035 A 
ATOM      8  C   UNL     1       1.941   1.006   0.000  0.00  0.00    +0.010 A 
ATOM      9  C   UNL     1       2.818   0.484   0.000  0.00  0.00    +0.082 A 
ATOM     10  C   UNL     1       2.818  -0.479   0.000  0.00  0.00    +0.346 A 
ATOM     11  O   UNL     1       3.730  -0.978   0.000  0.00  0.00    -0.244 OA
ATOM     12  O   UNL     1       1.941  -1.006   0.000  0.00  0.00    -0.421 OA
ATOM     13  C   UNL     1       0.203   1.006   0.000  0.00  0.00    +0.006 A 
ATOM     14  O   UNL     1      -1.637  -0.783   0.000  0.00  0.00    -0.458 OA
ENDROOT
BRANCH   1  15
ATOM     15  C   UNL     1      -3.208   0.072   0.000  0.00  0.00    +0.057 C 
ATOM     16  C   UNL     1      -3.730  -0.783   0.000  0.00  0.00    +0.008 C 
ATOM     17  C   UNL     1      -3.673   0.920   0.000  0.00  0.00    +0.008 C 
ENDBRANCH   1  15
TORSDOF 1
ENDMDL
MODEL      144
REMARK  Name = 5-hydroxy-2,2-dimethyl-6-[(1E)-3-oxo-3-(piperidin-1-yl)prop-1-en-1-yl]-4-(piperidin-1-yl)-3,4-dihydro-2H-1-benzopyran-3-yl acetate
REMARK  5 active torsions:
REMARK  status: ('A' for Active; 'I' for Inactive)
REMARK    1  A    between atoms: C_2  and  N_8
REMARK    2  A    between atoms: C_3  and  O_12
REMARK    3  A    between atoms: C_9  and  C_11
REMARK    4  A    between atoms: O_12  and  C_15
REMARK    5  A    between atoms: C_13  and  C_14
REMARK                            x       y       z     vdW  Elec       q    Type
REMARK                         _______ _______ _______ _____ _____    ______ ____
ROOT
ATOM      1  C   UNL     1       0.019  -1.593   0.000  0.00  0.00    +0.069 A 
ATOM      2  C   UNL     1      -0.866  -1.081   0.000  0.00  0.00    +0.196 A 
ATOM      3  O   UNL     1      -0.891  -0.076   0.000  0.00  0.00    -0.287 OA
ATOM      4  C   UNL     1      -1.713  -1.593   0.000  0.00  0.00    +0.039 A 
ATOM      5  C   UNL     1      -1.713  -2.599   0.000  0.00  0.00    +0.006 A 
ATOM      6  C   UNL     1      -0.866  -3.111   0.000  0.00  0.00    +0.037 A 
ATOM      7  C   UNL     1       0.019  -2.599   0.000  0.00  0.00    +0.139 A 
ATOM      8  O   UNL     1       0.866  -3.111   0.000  0.00  0.00    -0.479 OA
ATOM      9  C   UNL     1       1.714  -2.599   0.000  0.00  0.00    +0.171 C 
ATOM     10  C   UNL     1       1.714  -1.593   0.000  0.00  0.00    +0.224 C 
ATOM     11  C   UNL     1       2.719  -2.599   0.000  0.00  0.00    +0.047 C 
ATOM     12  C   UNL     1       2.295  -3.414   0.000  0.00  0.00    +0.047 C 
ATOM     13  C   UNL     1       0.866  -1.081   0.000  0.00  0.00    +0.130 C 
ENDROOT
BRANCH  13  14
ATOM     14  N   UNL     1       0.898  -0.076   0.000  0.00  0.00    -0.267 NA
ATOM     15  C   UNL     1       0.019   0.405   0.000  0.00  0.00    +0.072 C 
ATOM     16  C   UNL     1       0.019   1.410   0.000  0.00  0.00    +0.017 C 
ATOM     17  C   UNL     1       0.898   1.897   0.000  0.00  0.00    +0.003 C 
ATOM     18  C   UNL     1       1.714   1.410   0.000  0.00  0.00    +0.017 C 
ATOM     19  C   UNL     1       1.745   0.405   0.000  0.00  0.00    +0.072 C 
ENDBRANCH  13  14
BRANCH   4  20
ATOM     20  C   UNL     1      -2.624  -1.081   0.000  0.00  0.00    +0.008 C 
ATOM     21  C   UNL     1      -2.624  -0.076   0.000  0.00  0.00    +0.058 C 
BRANCH  21  22
ATOM     22  C   UNL     1      -3.503   0.436   0.000  0.00  0.00    +0.249 C 
ATOM     23  O   UNL     1      -4.356  -0.076   0.000  0.00  0.00    -0.270 OA
ATOM     24  N   UNL     1      -3.503   1.442   0.000  0.00  0.00    -0.276 N 
ATOM     25  C   UNL     1      -2.655   1.922   0.000  0.00  0.00    +0.094 C 
ATOM     26  C   UNL     1      -2.655   2.928   0.000  0.00  0.00    +0.022 C 
ATOM     27  C   UNL     1      -3.503   3.414   0.000  0.00  0.00    +0.004 C 
ATOM     28  C   UNL     1      -4.356   2.928   0.000  0.00  0.00    +0.022 C 
ATOM     29  C   UNL     1      -4.356   1.922   0.000  0.00  0.00    +0.094 C 
ENDBRANCH  21  22
ENDBRANCH   4  20
BRANCH  10  30
ATOM     30  O   UNL     1       2.624  -1.081   0.000  0.00  0.00    -0.447 OA
BRANCH  30  31
ATOM     31  C   UNL     1       3.478  -1.593   0.000  0.00  0.00    +0.318 C 
ATOM     32  C   UNL     1       4.356  -1.113   0.000  0.00  0.00    +0.121 C 
ATOM     33  O   UNL     1       3.478  -2.599   0.000  0.00  0.00    -0.250 OA
ENDBRANCH  30  31
ENDBRANCH  10  30
TORSDOF 5
ENDMDL
MODEL      145
REMARK  Name = [3,4,5-tris(acetyloxy)-6-{[8-(acetyloxy)-2-oxo-2H-chromen-7-yl]oxy}oxan-2-yl]methyl acetate
REMARK  13 active torsions:
REMARK  status: ('A' for Active; 'I' for Inactive)
REMARK    1  A    between atoms: C_1  and  O_13
REMARK    2  A    between atoms: C_2  and  O_14
REMARK    3  A    between atoms: C_3  and  O_11
REMARK    4  A    between atoms: C_4  and  O_16
REMARK    5  A    between atoms: C_5  and  O_15
REMARK    6  A    between atoms: C_8  and  C_25
REMARK    7  A    between atoms: C_10  and  O_11
REMARK    8  A    between atoms: O_13  and  C_21
REMARK    9  A    between atoms: O_14  and  C_20
REMARK   10  A    between atoms: O_15  and  C_22
REMARK   11  A    between atoms: O_16  and  C_23
REMARK   12  A    between atoms: C_24  and  O_28
REMARK   13  A    between atoms: C_25  and  O_28
REMARK                            x       y       z     vdW  Elec       q    Type
REMARK                         _______ _______ _______ _____ _____    ______ ____
ROOT
ATOM      1  C   UNL     1       0.235  -1.407   0.000  0.00  0.00    +0.281 C 
ATOM      2  C   UNL     1       1.304  -0.051   0.000  0.00  0.00    +0.333 C 
ATOM      3  O   UNL     1       0.235   1.374   0.000  0.00  0.00    -0.313 OA
ATOM      4  C   UNL     1      -1.812   1.374   0.000  0.00  0.00    +0.206 C 
ATOM      5  C   UNL     1      -2.881  -0.051   0.000  0.00  0.00    +0.243 C 
ATOM      6  C   UNL     1      -1.812  -1.407   0.000  0.00  0.00    +0.257 C 
ENDROOT
BRANCH   1   7
ATOM      7  O   UNL     1       0.235  -2.221   0.000  0.00  0.00    -0.442 OA
BRANCH   7   8
ATOM      8  C   UNL     1       1.088  -2.718   0.000  0.00  0.00    +0.318 C 
ATOM      9  C   UNL     1       1.982  -2.281   0.000  0.00  0.00    +0.121 C 
ATOM     10  O   UNL     1       1.151  -3.714   0.000  0.00  0.00    -0.250 OA
ENDBRANCH   7   8
ENDBRANCH   1   7
BRANCH   2  11
ATOM     11  O   UNL     1       1.334   2.429   0.000  0.00  0.00    -0.446 OA
BRANCH  11  12
ATOM     12  C   UNL     1       1.880   2.756   0.000  0.00  0.00    +0.179 A 
ATOM     13  C   UNL     1       1.880   3.409   0.000  0.00  0.00    +0.040 A 
ATOM     14  C   UNL     1       2.432   3.714   0.000  0.00  0.00    +0.006 A 
ATOM     15  C   UNL     1       2.983   3.409   0.000  0.00  0.00    +0.038 A 
ATOM     16  C   UNL     1       2.983   2.756   0.000  0.00  0.00    +0.186 A 
ATOM     17  O   UNL     1       3.530   2.451   0.000  0.00  0.00    -0.418 OA
ATOM     18  C   UNL     1       4.081   2.756   0.000  0.00  0.00    +0.346 A 
ATOM     19  C   UNL     1       4.081   3.409   0.000  0.00  0.00    +0.082 A 
ATOM     20  O   UNL     1       4.628   2.429   0.000  0.00  0.00    -0.244 OA
ATOM     21  C   UNL     1       3.530   3.714   0.000  0.00  0.00    +0.010 A 
ATOM     22  C   UNL     1       2.432   2.451   0.000  0.00  0.00    +0.216 A 
BRANCH  22  23
ATOM     23  O   UNL     1       2.432   1.798   0.000  0.00  0.00    -0.418 OA
BRANCH  23  24
ATOM     24  C   UNL     1       2.983   1.476   0.000  0.00  0.00    +0.322 C 
ATOM     25  C   UNL     1       2.983   0.844   0.000  0.00  0.00    +0.122 C 
ATOM     26  O   UNL     1       3.530   1.798   0.000  0.00  0.00    -0.250 OA
ENDBRANCH  23  24
ENDBRANCH  22  23
ENDBRANCH  11  12
ENDBRANCH   2  11
BRANCH   5  27
ATOM     27  O   UNL     1      -2.881  -0.967   0.000  0.00  0.00    -0.446 OA
BRANCH  27  28
ATOM     28  C   UNL     1      -3.776  -1.407   0.000  0.00  0.00    +0.318 C 
ATOM     29  C   UNL     1      -3.907  -2.391   0.000  0.00  0.00    +0.121 C 
ATOM     30  O   UNL     1      -4.628  -0.899   0.000  0.00  0.00    -0.250 OA
ENDBRANCH  27  28
ENDBRANCH   5  27
BRANCH   4  31
ATOM     31  C   UNL     1      -1.812   2.205   0.000  0.00  0.00    +0.242 C 
BRANCH  31  32
ATOM     32  O   UNL     1      -2.868   2.836   0.000  0.00  0.00    -0.446 OA
BRANCH  32  33
ATOM     33  C   UNL     1      -3.737   2.349   0.000  0.00  0.00    +0.318 C 
ATOM     34  C   UNL     1      -3.805   1.353   0.000  0.00  0.00    +0.121 C 
ATOM     35  O   UNL     1      -4.606   2.807   0.000  0.00  0.00    -0.250 OA
ENDBRANCH  32  33
ENDBRANCH  31  32
ENDBRANCH   4  31
BRANCH   6  36
ATOM     36  O   UNL     1      -1.812  -0.521   0.000  0.00  0.00    -0.444 OA
BRANCH  36  37
ATOM     37  C   UNL     1      -0.918  -0.102   0.000  0.00  0.00    +0.318 C 
ATOM     38  C   UNL     1      -0.774   0.874   0.000  0.00  0.00    +0.121 C 
ATOM     39  O   UNL     1      -0.070  -0.623   0.000  0.00  0.00    -0.250 OA
ENDBRANCH  36  37
ENDBRANCH   6  36
TORSDOF 13
ENDMDL
MODEL      146
REMARK  Name = 5-[(3,3-dimethyloxiran-2-yl)methoxy]-7H-furo[3,2-g]chromen-7-one
REMARK  3 active torsions:
REMARK  status: ('A' for Active; 'I' for Inactive)
REMARK    1  A    between atoms: C_4  and  O_14
REMARK    2  A    between atoms: C_5  and  C_16
REMARK    3  A    between atoms: O_14  and  C_16
REMARK                            x       y       z     vdW  Elec       q    Type
REMARK                         _______ _______ _______ _____ _____    ______ ____
ROOT
ATOM      1  C   UNL     1       1.162  -0.888   0.000  0.00  0.00    +0.148 A 
ATOM      2  C   UNL     1       2.013  -1.399   0.000  0.00  0.00    +0.119 A 
ATOM      3  C   UNL     1       2.013  -2.400   0.000  0.00  0.00    +0.349 A 
ATOM      4  O   UNL     1       2.920  -2.911   0.000  0.00  0.00    -0.244 OA
ATOM      5  O   UNL     1       1.162  -2.911   0.000  0.00  0.00    -0.421 OA
ATOM      6  C   UNL     1       0.287  -2.400   0.000  0.00  0.00    +0.155 A 
ATOM      7  C   UNL     1      -0.558  -2.911   0.000  0.00  0.00    +0.075 A 
ATOM      8  C   UNL     1      -1.408  -2.400   0.000  0.00  0.00    +0.148 A 
ATOM      9  O   UNL     1      -2.347  -2.703   0.000  0.00  0.00    -0.450 OA
ATOM     10  C   UNL     1      -2.920  -1.884   0.000  0.00  0.00    +0.180 A 
ATOM     11  C   UNL     1      -2.347  -1.096   0.000  0.00  0.00    +0.044 A 
ATOM     12  C   UNL     1      -1.408  -1.399   0.000  0.00  0.00    +0.038 A 
ATOM     13  C   UNL     1      -0.558  -0.888   0.000  0.00  0.00    +0.009 A 
ATOM     14  C   UNL     1       0.287  -1.399   0.000  0.00  0.00    +0.069 A 
ENDROOT
BRANCH   1  15
ATOM     15  O   UNL     1       1.194   0.113   0.000  0.00  0.00    -0.472 OA
BRANCH  15  16
ATOM     16  C   UNL     1       2.070   0.592   0.000  0.00  0.00    +0.237 C 
BRANCH  16  18
ATOM     17  O   UNL     1       2.133   2.589   0.000  0.00  0.00    -0.352 OA
ATOM     18  C   UNL     1       2.101   1.594   0.000  0.00  0.00    +0.183 C 
ATOM     19  C   UNL     1       1.257   2.104   0.000  0.00  0.00    +0.121 C 
ATOM     20  C   UNL     1       0.665   2.911   0.000  0.00  0.00    +0.032 C 
ATOM     21  C   UNL     1       0.394   1.499   0.000  0.00  0.00    +0.032 C 
ENDBRANCH  16  18
ENDBRANCH  15  16
ENDBRANCH   1  15
TORSDOF 3
ENDMDL
MODEL      147
REMARK  Name = (10Z)-8,8-dimethyl-10-[(4-nitrophenyl)methylidene]-2H,8H,9H,10H-pyrano[2,3-h]chromene-2,9-dione
REMARK  2 active torsions:
REMARK  status: ('A' for Active; 'I' for Inactive)
REMARK    1  A    between atoms: N_5  and  C_14
REMARK    2  A    between atoms: C_10  and  C_22
REMARK                            x       y       z     vdW  Elec       q    Type
REMARK                         _______ _______ _______ _____ _____    ______ ____
ROOT
ATOM      1  C   UNL     1      -0.376   1.054   0.000  0.00  0.00    +0.044 C 
ATOM      2  C   UNL     1       0.713   0.512   0.000  0.00  0.00    +0.003 C 
ATOM      3  C   UNL     1      -1.243   0.553   0.000  0.00  0.00    +0.209 C 
ATOM      4  O   UNL     1      -1.214  -0.454   0.000  0.00  0.00    -0.288 OA
ATOM      5  C   UNL     1      -2.111   1.054   0.000  0.00  0.00    +0.188 C 
ATOM      6  C   UNL     1      -3.089   1.304   0.000  0.00  0.00    +0.052 C 
ATOM      7  C   UNL     1      -2.978   0.553   0.000  0.00  0.00    +0.052 C 
ATOM      8  O   UNL     1      -2.111   2.032   0.000  0.00  0.00    -0.475 OA
ATOM      9  C   UNL     1      -1.243   2.538   0.000  0.00  0.00    +0.142 A 
ATOM     10  C   UNL     1      -1.243   3.517   0.000  0.00  0.00    +0.037 A 
ATOM     11  C   UNL     1      -0.376   4.017   0.000  0.00  0.00    +0.006 A 
ATOM     12  C   UNL     1       0.486   3.517   0.000  0.00  0.00    +0.035 A 
ATOM     13  C   UNL     1       1.354   3.988   0.000  0.00  0.00    +0.010 A 
ATOM     14  C   UNL     1       2.221   3.517   0.000  0.00  0.00    +0.082 A 
ATOM     15  C   UNL     1       2.221   2.538   0.000  0.00  0.00    +0.346 A 
ATOM     16  O   UNL     1       3.089   2.061   0.000  0.00  0.00    -0.244 OA
ATOM     17  O   UNL     1       1.354   2.032   0.000  0.00  0.00    -0.421 OA
ATOM     18  C   UNL     1       0.486   2.538   0.000  0.00  0.00    +0.152 A 
ATOM     19  C   UNL     1      -0.376   2.032   0.000  0.00  0.00    +0.071 A 
ENDROOT
BRANCH   2  20
ATOM     20  C   UNL     1       0.795  -0.443   0.000  0.00  0.00    +0.000 A 
ATOM     21  C   UNL     1      -0.073  -0.902   0.000  0.00  0.00    +0.006 A 
ATOM     22  C   UNL     1      -0.073  -1.881   0.000  0.00  0.00    +0.075 A 
ATOM     23  C   UNL     1       0.742  -2.381   0.000  0.00  0.00    +0.290 A 
ATOM     24  C   UNL     1       1.651  -1.933   0.000  0.00  0.00    +0.075 A 
ATOM     25  C   UNL     1       1.674  -0.955   0.000  0.00  0.00    +0.006 A 
BRANCH  23  26
ATOM     26  N   UNL     1       0.643  -3.377   0.000  0.00  0.00    +0.081 N 
ATOM     27  O   UNL     1       1.412  -4.017   0.000  0.00  0.00    +0.041 OA
ATOM     28  O   UNL     1      -0.236  -3.866   0.000  0.00  0.00    -0.576 OA
ENDBRANCH  23  26
ENDBRANCH   2  20
TORSDOF 2
ENDMDL
MODEL      148
REMARK  Name = 9-hydroxy-3,5a,9-trimethyl-2H,3H,3aH,4H,5H,5aH,6H,9H,9aH,9bH-naphtho[1,2-b]furan-2,6-dione
REMARK  0 active torsions:
REMARK  status: ('A' for Active; 'I' for Inactive)
REMARK                            x       y       z     vdW  Elec       q    Type
REMARK                         _______ _______ _______ _____ _____    ______ ____
ROOT
ATOM      1  C   UNL     1       0.167  -0.462   0.000  0.00  0.00    +0.168 C 
ATOM      2  C   UNL     1       1.141  -0.443   0.000  0.00  0.00    +0.051 C 
ATOM      3  C   UNL     1       1.643   0.373   0.000  0.00  0.00    +0.005 C 
ATOM      4  C   UNL     1       1.141   1.228   0.000  0.00  0.00    +0.007 C 
ATOM      5  C   UNL     1       0.167   1.228   0.000  0.00  0.00    +0.058 C 
ATOM      6  C   UNL     1       0.882   2.238   0.000  0.00  0.00    +0.008 C 
ATOM      7  C   UNL     1      -0.321   2.064   0.000  0.00  0.00    +0.172 C 
ATOM      8  C   UNL     1      -1.290   2.044   0.000  0.00  0.00    +0.035 C 
ATOM      9  C   UNL     1      -1.768   1.228   0.000  0.00  0.00    +0.006 C 
ATOM     10  C   UNL     1      -1.290   0.373   0.000  0.00  0.00    +0.145 C 
ATOM     11  C   UNL     1      -1.469  -0.731   0.000  0.00  0.00    +0.037 C 
ATOM     12  O   UNL     1      -2.379   0.035   0.000  0.00  0.00    -0.221 OA
ATOM     13  O   UNL     1       0.167   2.924   0.000  0.00  0.00    -0.291 OA
ATOM     14  C   UNL     1       1.454  -1.372   0.000  0.00  0.00    +0.103 C 
ATOM     15  C   UNL     1       0.664  -1.949   0.000  0.00  0.00    +0.316 C 
ATOM     16  O   UNL     1       0.689  -2.924   0.000  0.00  0.00    -0.250 OA
ATOM     17  C   UNL     1       2.379  -1.686   0.000  0.00  0.00    +0.012 C 
ATOM     18  O   UNL     1      -0.127  -1.397   0.000  0.00  0.00    -0.452 OA
ATOM     19  C   UNL     1      -0.321   0.373   0.000  0.00  0.00    +0.092 C 
ENDROOT
TORSDOF 0
ENDMDL
MODEL      149
REMARK  Name = 8,8-dimethyl-10-{[(2E)-2-methylbut-2-enoyl]oxy}-2-oxo-2H,8H,9H,10H-pyrano[2,3-h]chromen-9-yl (2Z)-2-methylbut-2-enoate
REMARK  6 active torsions:
REMARK  status: ('A' for Active; 'I' for Inactive)
REMARK    1  A    between atoms: C_2  and  O_8
REMARK    2  A    between atoms: C_4  and  O_9
REMARK    3  A    between atoms: O_8  and  C_11
REMARK    4  A    between atoms: O_9  and  C_12
REMARK    5  A    between atoms: C_11  and  C_16
REMARK    6  A    between atoms: C_12  and  C_17
REMARK                            x       y       z     vdW  Elec       q    Type
REMARK                         _______ _______ _______ _____ _____    ______ ____
ROOT
ATOM      1  C   UNL     1      -0.987   1.653   0.000  0.00  0.00    +0.090 A 
ATOM      2  C   UNL     1      -1.820   2.149   0.000  0.00  0.00    +0.141 A 
ATOM      3  C   UNL     1      -1.820   3.118   0.000  0.00  0.00    +0.037 A 
ATOM      4  C   UNL     1      -0.987   3.609   0.000  0.00  0.00    +0.006 A 
ATOM      5  C   UNL     1      -0.114   3.118   0.000  0.00  0.00    +0.035 A 
ATOM      6  C   UNL     1       0.737   3.587   0.000  0.00  0.00    +0.010 A 
ATOM      7  C   UNL     1       1.592   3.118   0.000  0.00  0.00    +0.082 A 
ATOM      8  C   UNL     1       1.570   2.149   0.000  0.00  0.00    +0.346 A 
ATOM      9  O   UNL     1       2.443   1.653   0.000  0.00  0.00    -0.244 OA
ATOM     10  O   UNL     1       0.715   1.653   0.000  0.00  0.00    -0.421 OA
ATOM     11  O   UNL     1      -2.671   1.653   0.000  0.00  0.00    -0.479 OA
ATOM     12  C   UNL     1      -2.692   0.684   0.000  0.00  0.00    +0.174 C 
ATOM     13  C   UNL     1      -1.820   0.189   0.000  0.00  0.00    +0.249 C 
ATOM     14  C   UNL     1      -3.030  -0.250   0.000  0.00  0.00    +0.048 C 
ATOM     15  C   UNL     1      -3.662   0.715   0.000  0.00  0.00    +0.048 C 
ATOM     16  C   UNL     1      -0.114   2.149   0.000  0.00  0.00    +0.151 A 
ATOM     17  C   UNL     1      -0.987   0.662   0.000  0.00  0.00    +0.240 C 
ENDROOT
BRANCH  13  18
ATOM     18  O   UNL     1      -1.895  -1.030   0.000  0.00  0.00    -0.442 OA
BRANCH  18  19
ATOM     19  C   UNL     1      -1.430  -1.886   0.000  0.00  0.00    +0.337 C 
ATOM     20  O   UNL     1      -0.662  -1.991   0.000  0.00  0.00    -0.245 OA
BRANCH  19  21
ATOM     21  C   UNL     1      -1.991  -2.736   0.000  0.00  0.00    +0.049 C 
ATOM     22  C   UNL     1      -1.579  -3.609   0.000  0.00  0.00    +0.037 C 
ATOM     23  C   UNL     1      -2.986  -2.653   0.000  0.00  0.00    -0.024 C 
ATOM     24  C   UNL     1      -3.390  -1.767   0.000  0.00  0.00    +0.031 C 
ENDBRANCH  19  21
ENDBRANCH  18  19
ENDBRANCH  13  18
BRANCH  17  25
ATOM     25  O   UNL     1       0.316  -0.149   0.000  0.00  0.00    -0.441 OA
BRANCH  25  26
ATOM     26  C   UNL     1       1.083  -0.728   0.000  0.00  0.00    +0.337 C 
ATOM     27  O   UNL     1       0.916  -1.745   0.000  0.00  0.00    -0.245 OA
BRANCH  26  28
ATOM     28  C   UNL     1       2.000  -0.430   0.000  0.00  0.00    +0.050 C 
ATOM     29  C   UNL     1       2.127   0.588   0.000  0.00  0.00    +0.037 C 
ATOM     30  C   UNL     1       2.749  -1.009   0.000  0.00  0.00    -0.024 C 
ATOM     31  C   UNL     1       3.662  -0.631   0.000  0.00  0.00    +0.031 C 
ENDBRANCH  26  28
ENDBRANCH  25  26
ENDBRANCH  17  25
TORSDOF 6
ENDMDL
MODEL      150
REMARK  Name = 9-chloro-8,8-dimethyl-2-oxo-2H,8H-pyrano[2,3-f]chromene-10-carbaldehyde
REMARK  1 active torsions:
REMARK  status: ('A' for Active; 'I' for Inactive)
REMARK    1  A    between atoms: C_1  and  C_13
REMARK                            x       y       z     vdW  Elec       q    Type
REMARK                         _______ _______ _______ _____ _____    ______ ____
ROOT
ATOM      1  C   UNL     1      -0.385  -0.742   0.000  0.00  0.00    +0.047 C 
ATOM      2  C   UNL     1      -1.237  -1.226   0.000  0.00  0.00    +0.074 C 
ATOM      3 CL   UNL     1      -1.246  -2.202   0.000  0.00  0.00    -0.083 Cl
ATOM      4  C   UNL     1      -2.128  -0.719   0.000  0.00  0.00    +0.162 C 
ATOM      5  C   UNL     1      -2.473  -1.674   0.000  0.00  0.00    +0.049 C 
ATOM      6  C   UNL     1      -3.119  -0.688   0.000  0.00  0.00    +0.049 C 
ATOM      7  O   UNL     1      -2.106   0.271   0.000  0.00  0.00    -0.478 OA
ATOM      8  C   UNL     1      -1.237   0.777   0.000  0.00  0.00    +0.142 A 
ATOM      9  C   UNL     1      -1.237   1.768   0.000  0.00  0.00    +0.037 A 
ATOM     10  C   UNL     1      -0.385   2.269   0.000  0.00  0.00    +0.006 A 
ATOM     11  C   UNL     1       0.506   1.768   0.000  0.00  0.00    +0.035 A 
ATOM     12  C   UNL     1       1.376   2.247   0.000  0.00  0.00    +0.010 A 
ATOM     13  C   UNL     1       2.249   1.768   0.000  0.00  0.00    +0.082 A 
ATOM     14  C   UNL     1       2.227   0.777   0.000  0.00  0.00    +0.346 A 
ATOM     15  O   UNL     1       3.119   0.271   0.000  0.00  0.00    -0.244 OA
ATOM     16  O   UNL     1       1.353   0.271   0.000  0.00  0.00    -0.421 OA
ATOM     17  C   UNL     1       0.506   0.777   0.000  0.00  0.00    +0.152 A 
ATOM     18  C   UNL     1      -0.385   0.271   0.000  0.00  0.00    +0.072 A 
ENDROOT
BRANCH   1  19
ATOM     19  C   UNL     1       0.462  -1.266   0.000  0.00  0.00    +0.260 C 
ATOM     20  O   UNL     1       1.353  -0.827   0.000  0.00  0.00    -0.296 OA
ENDBRANCH   1  19
TORSDOF 1
ENDMDL
MODEL      151
REMARK  Name = 3-{[({8a-methyl-5-methylidene-2-oxo-dodecahydronaphtho[2,3-b]furan-3-yl}methyl)amino]methyl}-8a-methyl-5-methylidene-dodecahydronaphtho[2,3-b]furan-2-one
REMARK  4 active torsions:
REMARK  status: ('A' for Active; 'I' for Inactive)
REMARK    1  A    between atoms: C_3  and  C_27
REMARK    2  A    between atoms: C_4  and  C_26
REMARK    3  A    between atoms: N_25  and  C_26
REMARK    4  A    between atoms: N_25  and  C_27
REMARK                            x       y       z     vdW  Elec       q    Type
REMARK                         _______ _______ _______ _____ _____    ______ ____
ROOT
ATOM      1  N   UNL     1       0.605   0.045   0.000  0.00  0.00    -0.217 NA
ENDROOT
BRANCH   1   2
ATOM      2  C   UNL     1       0.963   0.981   0.000  0.00  0.00    +0.100 C 
BRANCH   2  18
ATOM      3  C   UNL     1       2.372   2.056   0.000  0.00  0.00    +0.318 C 
ATOM      4  O   UNL     1       1.869   2.903   0.000  0.00  0.00    -0.250 OA
ATOM      5  O   UNL     1       3.353   1.981   0.000  0.00  0.00    -0.452 OA
ATOM      6  C   UNL     1       3.567   1.001   0.000  0.00  0.00    +0.169 C 
ATOM      7  C   UNL     1       2.706   0.503   0.000  0.00  0.00    +0.052 C 
ATOM      8  C   UNL     1       2.706  -0.528   0.000  0.00  0.00    +0.008 C 
ATOM      9  C   UNL     1       3.567  -1.031   0.000  0.00  0.00    +0.019 C 
ATOM     10  C   UNL     1       4.429  -0.528   0.000  0.00  0.00    +0.007 C 
ATOM     11  C   UNL     1       5.265   0.035   0.000  0.00  0.00    +0.000 C 
ATOM     12  C   UNL     1       5.310  -1.031   0.000  0.00  0.00    +0.001 C 
ATOM     13  C   UNL     1       5.310  -2.021   0.000  0.00  0.00    +0.004 C 
ATOM     14  C   UNL     1       4.439  -2.524   0.000  0.00  0.00    +0.022 C 
ATOM     15  C   UNL     1       3.567  -2.031   0.000  0.00  0.00    -0.045 C 
ATOM     16  C   UNL     1       2.706  -2.534   0.000  0.00  0.00    -0.009 C 
ATOM     17  C   UNL     1       4.429   0.503   0.000  0.00  0.00    +0.044 C 
ATOM     18  C   UNL     1       1.964   1.170   0.000  0.00  0.00    +0.120 C 
ENDBRANCH   2  18
ENDBRANCH   1   2
BRANCH   1  19
ATOM     19  C   UNL     1      -0.376  -0.119   0.000  0.00  0.00    +0.100 C 
BRANCH  19  20
ATOM     20  C   UNL     1      -0.734  -1.051   0.000  0.00  0.00    +0.120 C 
ATOM     21  C   UNL     1      -1.715  -1.220   0.000  0.00  0.00    +0.052 C 
ATOM     22  C   UNL     1      -2.502  -0.597   0.000  0.00  0.00    +0.008 C 
ATOM     23  C   UNL     1      -3.438  -0.981   0.000  0.00  0.00    +0.019 C 
ATOM     24  C   UNL     1      -4.224  -0.348   0.000  0.00  0.00    -0.045 C 
ATOM     25  C   UNL     1      -5.170  -0.717   0.000  0.00  0.00    +0.022 C 
ATOM     26  C   UNL     1      -5.310  -1.708   0.000  0.00  0.00    +0.004 C 
ATOM     27  C   UNL     1      -4.523  -2.345   0.000  0.00  0.00    +0.001 C 
ATOM     28  C   UNL     1      -4.080   0.632   0.000  0.00  0.00    -0.009 C 
ATOM     29  C   UNL     1      -3.577  -1.962   0.000  0.00  0.00    +0.007 C 
ATOM     30  C   UNL     1      -2.791  -2.584   0.000  0.00  0.00    +0.044 C 
ATOM     31  C   UNL     1      -3.712  -2.903   0.000  0.00  0.00    +0.000 C 
ATOM     32  C   UNL     1      -1.859  -2.200   0.000  0.00  0.00    +0.169 C 
ATOM     33  O   UNL     1      -0.973  -2.654   0.000  0.00  0.00    -0.452 OA
ATOM     34  C   UNL     1      -0.281  -1.937   0.000  0.00  0.00    +0.318 C 
ATOM     35  O   UNL     1       0.700  -2.066   0.000  0.00  0.00    -0.250 OA
ENDBRANCH  19  20
ENDBRANCH   1  19
TORSDOF 4
ENDMDL
MODEL      152
REMARK  Name = 5-hydroxy-2,2-dimethyl-6-[(1E)-3-oxo-3-(piperidin-1-yl)prop-1-en-1-yl]-4-(piperidin-1-yl)-3,4-dihydro-2H-1-benzopyran-3-yl 2-methylbutanoate
REMARK  7 active torsions:
REMARK  status: ('A' for Active; 'I' for Inactive)
REMARK    1  A    between atoms: C_2  and  O_7
REMARK    2  A    between atoms: C_3  and  N_10
REMARK    3  A    between atoms: O_7  and  C_9
REMARK    4  A    between atoms: C_9  and  C_20
REMARK    5  A    between atoms: C_11  and  C_13
REMARK    6  A    between atoms: C_14  and  C_15
REMARK    7  A    between atoms: C_20  and  C_28
REMARK                            x       y       z     vdW  Elec       q    Type
REMARK                         _______ _______ _______ _____ _____    ______ ____
ROOT
ATOM      1  C   UNL     1      -0.711   0.200   0.000  0.00  0.00    +0.069 A 
ATOM      2  C   UNL     1       0.133   0.675   0.000  0.00  0.00    +0.196 A 
ATOM      3  O   UNL     1       1.229   0.188   0.000  0.00  0.00    -0.287 OA
ATOM      4  C   UNL     1       0.133   1.666   0.000  0.00  0.00    +0.039 A 
ATOM      5  C   UNL     1      -0.711   2.140   0.000  0.00  0.00    +0.006 A 
ATOM      6  C   UNL     1      -1.555   1.666   0.000  0.00  0.00    +0.037 A 
ATOM      7  C   UNL     1      -1.555   0.675   0.000  0.00  0.00    +0.139 A 
ATOM      8  O   UNL     1      -2.411   0.200   0.000  0.00  0.00    -0.479 OA
ATOM      9  C   UNL     1      -2.411  -0.791   0.000  0.00  0.00    +0.171 C 
ATOM     10  C   UNL     1      -1.568  -1.278   0.000  0.00  0.00    +0.224 C 
ATOM     11  C   UNL     1      -3.594  -0.360   0.000  0.00  0.00    +0.047 C 
ATOM     12  C   UNL     1      -3.298  -1.334   0.000  0.00  0.00    +0.047 C 
ATOM     13  C   UNL     1      -0.711  -0.791   0.000  0.00  0.00    +0.130 C 
ENDROOT
BRANCH  13  14
ATOM     14  N   UNL     1       0.133  -1.278   0.000  0.00  0.00    -0.267 NA
ATOM     15  C   UNL     1       0.133  -2.270   0.000  0.00  0.00    +0.072 C 
ATOM     16  C   UNL     1       0.989  -2.769   0.000  0.00  0.00    +0.017 C 
ATOM     17  C   UNL     1       1.845  -2.251   0.000  0.00  0.00    +0.003 C 
ATOM     18  C   UNL     1       1.833  -1.278   0.000  0.00  0.00    +0.017 C 
ATOM     19  C   UNL     1       0.976  -0.804   0.000  0.00  0.00    +0.072 C 
ENDBRANCH  13  14
BRANCH   4  20
ATOM     20  C   UNL     1       0.976   2.140   0.000  0.00  0.00    +0.008 C 
ATOM     21  C   UNL     1       1.820   1.666   0.000  0.00  0.00    +0.058 C 
BRANCH  21  22
ATOM     22  C   UNL     1       2.688   2.140   0.000  0.00  0.00    +0.249 C 
ATOM     23  O   UNL     1       3.594   1.561   0.000  0.00  0.00    -0.270 OA
ATOM     24  N   UNL     1       2.658   3.114   0.000  0.00  0.00    -0.276 N 
ATOM     25  C   UNL     1       3.502   3.643   0.000  0.00  0.00    +0.094 C 
ATOM     26  C   UNL     1       3.458   4.635   0.000  0.00  0.00    +0.022 C 
ATOM     27  C   UNL     1       2.603   5.078   0.000  0.00  0.00    +0.004 C 
ATOM     28  C   UNL     1       1.771   4.561   0.000  0.00  0.00    +0.022 C 
ATOM     29  C   UNL     1       1.820   3.569   0.000  0.00  0.00    +0.094 C 
ENDBRANCH  21  22
ENDBRANCH   4  20
BRANCH  10  30
ATOM     30  O   UNL     1      -1.568  -2.251   0.000  0.00  0.00    -0.447 OA
BRANCH  30  31
ATOM     31  C   UNL     1      -2.411  -2.756   0.000  0.00  0.00    +0.316 C 
ATOM     32  O   UNL     1      -3.237  -2.220   0.000  0.00  0.00    -0.250 OA
BRANCH  31  33
ATOM     33  C   UNL     1      -2.442  -3.729   0.000  0.00  0.00    +0.099 C 
ATOM     34  C   UNL     1      -3.532  -4.382   0.000  0.00  0.00    +0.012 C 
BRANCH  33  35
ATOM     35  C   UNL     1      -1.611  -4.247   0.000  0.00  0.00    +0.011 C 
ATOM     36  C   UNL     1      -1.641  -5.078   0.000  0.00  0.00    +0.001 C 
ENDBRANCH  33  35
ENDBRANCH  31  33
ENDBRANCH  30  31
ENDBRANCH  10  30
TORSDOF 7
ENDMDL
MODEL      153
REMARK  Name = 1,2,4-trimethoxy-5-[(1E)-prop-1-en-1-yl]benzene
REMARK  4 active torsions:
REMARK  status: ('A' for Active; 'I' for Inactive)
REMARK    1  A    between atoms: C_2  and  C_7
REMARK    2  A    between atoms: C_3  and  O_10
REMARK    3  A    between atoms: C_4  and  O_9
REMARK    4  A    between atoms: C_5  and  O_11
REMARK                            x       y       z     vdW  Elec       q    Type
REMARK                         _______ _______ _______ _____ _____    ______ ____
ROOT
ATOM      1  C   UNL     1      -0.435   1.013   0.000  0.00  0.00    +0.077 A 
ATOM      2  C   UNL     1       0.431   1.497   0.000  0.00  0.00    +0.175 A 
ATOM      3  C   UNL     1       1.297   1.013   0.000  0.00  0.00    +0.173 A 
ATOM      4  C   UNL     1       1.297   0.002   0.000  0.00  0.00    +0.043 A 
ATOM      5  C   UNL     1       0.431  -0.508   0.000  0.00  0.00    +0.037 A 
ATOM      6  C   UNL     1      -0.435   0.002   0.000  0.00  0.00    +0.142 A 
ENDROOT
BRANCH   5   7
ATOM      7  C   UNL     1       0.431  -1.497   0.000  0.00  0.00    -0.001 C 
ATOM      8  C   UNL     1       1.297  -2.002   0.000  0.00  0.00    -0.026 C 
ATOM      9  C   UNL     1       1.297  -2.996   0.000  0.00  0.00    +0.031 C 
ENDBRANCH   5   7
BRANCH   2  10
ATOM     10  O   UNL     1       0.431   2.512   0.000  0.00  0.00    -0.468 OA
ATOM     11  C   UNL     1       1.297   2.996   0.000  0.00  0.00    +0.253 C 
ENDBRANCH   2  10
BRANCH   3  12
ATOM     12  O   UNL     1       2.163   1.519   0.000  0.00  0.00    -0.468 OA
ATOM     13  C   UNL     1       2.163   2.512   0.000  0.00  0.00    +0.253 C 
ENDBRANCH   3  12
BRANCH   6  14
ATOM     14  O   UNL     1      -1.301  -0.508   0.000  0.00  0.00    -0.471 OA
ATOM     15  C   UNL     1      -2.163  -0.020   0.000  0.00  0.00    +0.252 C 
ENDBRANCH   6  14
TORSDOF 4
ENDMDL
MODEL      154
REMARK  Name = 3a,5a,10-trihydroxy-11a-methyl-1-(5-oxo-2,5-dihydrofuran-3-yl)-7-[(3,4,5-trihydroxy-6-methyloxan-2-yl)oxy]-hexadecahydro-1H-cyclopenta[a]phenanthrene-9a-carbaldehyde
REMARK  4 active torsions:
REMARK  status: ('A' for Active; 'I' for Inactive)
REMARK    1  A    between atoms: C_3  and  C_28
REMARK    2  A    between atoms: C_5  and  O_23
REMARK    3  A    between atoms: C_10  and  C_12
REMARK    4  A    between atoms: O_23  and  C_29
REMARK                            x       y       z     vdW  Elec       q    Type
REMARK                         _______ _______ _______ _____ _____    ______ ____
ROOT
ATOM      1  C   UNL     1       2.861   1.079   0.000  0.00  0.00    +0.032 C 
ATOM      2  C   UNL     1       2.872   2.042   0.000  0.00  0.00    +0.003 C 
ATOM      3  C   UNL     1       2.088   1.503   0.000  0.00  0.00    +0.035 C 
ATOM      4  C   UNL     1       1.251   1.079   0.000  0.00  0.00    +0.149 C 
ATOM      5  O   UNL     1       0.438   1.532   0.000  0.00  0.00    -0.223 OA
ATOM      6  C   UNL     1       1.251   0.146   0.000  0.00  0.00    +0.051 C 
ATOM      7  C   UNL     1       2.088  -0.283   0.000  0.00  0.00    +0.040 C 
ATOM      8  C   UNL     1       2.088  -1.217   0.000  0.00  0.00    +0.001 C 
ATOM      9  C   UNL     1       1.251  -1.601   0.000  0.00  0.00    +0.031 C 
ATOM     10  C   UNL     1       0.507  -1.217   0.000  0.00  0.00    +0.135 C 
ATOM     11  O   UNL     1       0.507  -2.357   0.000  0.00  0.00    -0.225 OA
ATOM     12  C   UNL     1      -0.341  -1.601   0.000  0.00  0.00    +0.060 C 
ATOM     13  C   UNL     1      -1.045  -1.217   0.000  0.00  0.00    +0.120 C 
ATOM     14  C   UNL     1      -1.045  -0.283   0.000  0.00  0.00    +0.030 C 
ATOM     15  C   UNL     1      -0.341   0.146   0.000  0.00  0.00    +0.012 C 
ATOM     16  C   UNL     1       0.507  -0.283   0.000  0.00  0.00    +0.083 C 
ATOM     17  C   UNL     1       3.668   1.286   0.000  0.00  0.00    +0.024 C 
ATOM     18  C   UNL     1       4.218   0.599   0.000  0.00  0.00    +0.007 C 
ATOM     19  C   UNL     1       3.668  -0.117   0.000  0.00  0.00    +0.030 C 
ATOM     20  C   UNL     1       2.861   0.146   0.000  0.00  0.00    +0.123 C 
ATOM     21  O   UNL     1       2.872  -0.805   0.000  0.00  0.00    -0.226 OA
ENDROOT
BRANCH  17  22
ATOM     22  C   UNL     1       3.943   2.231   0.000  0.00  0.00    +0.005 C 
ATOM     23  C   UNL     1       4.883   2.592   0.000  0.00  0.00    +0.231 C 
ATOM     24  O   UNL     1       4.837   3.583   0.000  0.00  0.00    -0.441 OA
ATOM     25  C   UNL     1       3.863   3.829   0.000  0.00  0.00    +0.341 C 
ATOM     26  O   UNL     1       3.491   4.791   0.000  0.00  0.00    -0.245 OA
ATOM     27  C   UNL     1       3.325   2.964   0.000  0.00  0.00    +0.077 C 
ENDBRANCH  17  22
BRANCH  16  28
ATOM     28  C   UNL     1       0.507   0.696   0.000  0.00  0.00    +0.209 C 
ATOM     29  O   UNL     1      -0.289   1.108   0.000  0.00  0.00    -0.288 OA
ENDBRANCH  16  28
BRANCH  13  30
ATOM     30  O   UNL     1      -1.853  -1.669   0.000  0.00  0.00    -0.331 OA
BRANCH  30  31
ATOM     31  C   UNL     1      -1.853  -2.924   0.000  0.00  0.00    +0.269 C 
ATOM     32  O   UNL     1      -2.626  -1.916   0.000  0.00  0.00    -0.328 OA
ATOM     33  C   UNL     1      -4.109  -1.916   0.000  0.00  0.00    +0.151 C 
ATOM     34  C   UNL     1      -4.098  -0.885   0.000  0.00  0.00    +0.035 C 
ATOM     35  C   UNL     1      -4.883  -2.924   0.000  0.00  0.00    +0.212 C 
ATOM     36  C   UNL     1      -4.109  -3.886   0.000  0.00  0.00    +0.220 C 
ATOM     37  O   UNL     1      -4.109  -4.791   0.000  0.00  0.00    -0.217 OA
ATOM     38  O   UNL     1      -4.865  -1.710   0.000  0.00  0.00    -0.218 OA
ATOM     39  C   UNL     1      -2.626  -3.886   0.000  0.00  0.00    +0.241 C 
ATOM     40  O   UNL     1      -2.626  -4.779   0.000  0.00  0.00    -0.215 OA
ENDBRANCH  30  31
ENDBRANCH  13  30
TORSDOF 4
ENDMDL
MODEL      155
REMARK  Name = Unable to name this structure
REMARK  7 active torsions:
REMARK  status: ('A' for Active; 'I' for Inactive)
REMARK    1  A    between atoms: N_1  and  C_25
REMARK    2  A    between atoms: C_10  and  C_38
REMARK    3  A    between atoms: C_20  and  C_53
REMARK    4  A    between atoms: C_21  and  C_22
REMARK    5  A    between atoms: C_25  and  C_29
REMARK    6  A    between atoms: C_29  and  O_39
REMARK    7  A    between atoms: O_39  and  C_40
REMARK                            x       y       z     vdW  Elec       q    Type
REMARK                         _______ _______ _______ _____ _____    ______ ____
ROOT
ATOM      1  O   UNL     1      -0.103  -1.101   0.000  0.00  0.00    -0.448 OA
ENDROOT
BRANCH   1   2
ATOM      2  C   UNL     1       0.733  -0.640   0.000  0.00  0.00    +0.172 C 
ATOM      3  C   UNL     1       0.733   0.309   0.000  0.00  0.00    +0.044 C 
ATOM      4  C   UNL     1       1.470   0.771   0.000  0.00  0.00    +0.013 C 
ATOM      5  C   UNL     1       2.307   0.309   0.000  0.00  0.00    +0.081 C 
ATOM      6  C   UNL     1       2.307  -0.640   0.000  0.00  0.00    +0.136 C 
ATOM      7  O   UNL     1       2.307  -1.838   0.000  0.00  0.00    -0.225 OA
ATOM      8  C   UNL     1       3.131  -1.070   0.000  0.00  0.00    +0.031 C 
ATOM      9  C   UNL     1       3.898  -0.640   0.000  0.00  0.00    +0.001 C 
ATOM     10  C   UNL     1       3.898   0.309   0.000  0.00  0.00    +0.038 C 
ATOM     11  C   UNL     1       4.735   0.771   0.000  0.00  0.00    +0.123 C 
ATOM     12  C   UNL     1       4.735   1.701   0.000  0.00  0.00    +0.029 C 
ATOM     13  C   UNL     1       4.722   2.881   0.000  0.00  0.00    +0.003 C 
ATOM     14  C   UNL     1       5.602   1.957   0.000  0.00  0.00    +0.024 C 
ATOM     15  C   UNL     1       6.127   1.233   0.000  0.00  0.00    +0.007 C 
ATOM     16  C   UNL     1       3.898   2.151   0.000  0.00  0.00    +0.002 C 
ATOM     17  C   UNL     1       3.131   1.701   0.000  0.00  0.00    -0.004 C 
ATOM     18  O   UNL     1       4.722  -0.352   0.000  0.00  0.00    -0.226 OA
ATOM     19  C   UNL     1       5.602   0.503   0.000  0.00  0.00    +0.030 C 
ATOM     20  C   UNL     1       3.131   0.771   0.000  0.00  0.00    +0.021 C 
ATOM     21  C   UNL     1       1.470  -1.070   0.000  0.00  0.00    +0.074 C 
BRANCH  14  22
ATOM     22  C   UNL     1       5.890   2.856   0.000  0.00  0.00    +0.005 C 
ATOM     23  C   UNL     1       6.757   3.155   0.000  0.00  0.00    +0.231 C 
ATOM     24  O   UNL     1       6.726   4.079   0.000  0.00  0.00    -0.441 OA
ATOM     25  C   UNL     1       5.846   4.335   0.000  0.00  0.00    +0.341 C 
ATOM     26  O   UNL     1       5.528   5.234   0.000  0.00  0.00    -0.245 OA
ATOM     27  C   UNL     1       5.303   3.543   0.000  0.00  0.00    +0.077 C 
ENDBRANCH  14  22
BRANCH   5  28
ATOM     28  C   UNL     1       2.307   1.233   0.000  0.00  0.00    +0.209 C 
ATOM     29  O   UNL     1       1.470   1.701   0.000  0.00  0.00    -0.288 OA
ENDBRANCH   5  28
ENDBRANCH   1   2
BRANCH   1  30
ATOM     30  C   UNL     1      -0.103  -2.032   0.000  0.00  0.00    +0.374 C 
ATOM     31  O   UNL     1       0.721  -2.494   0.000  0.00  0.00    -0.243 OA
BRANCH  30  32
ATOM     32  C   UNL     1      -0.914  -2.331   0.000  0.00  0.00    +0.221 C 
BRANCH  32  33
ATOM     33  N   UNL     1      -1.514  -3.393   0.000  0.00  0.00    +0.317 N 
ATOM     34  C   UNL     1      -0.746  -3.861   0.000  0.00  0.00    +0.215 C 
ATOM     35  O   UNL     1       0.091  -3.349   0.000  0.00  0.00    -0.167 OA
ATOM     36  C   UNL     1      -0.746  -4.772   0.000  0.00  0.00    +0.084 C 
ATOM     37  C   UNL     1      -1.514  -5.234   0.000  0.00  0.00    +0.022 C 
ATOM     38  C   UNL     1      -1.975  -2.612   0.000  0.00  0.00    +0.081 C 
ATOM     39  C   UNL     1      -3.118  -2.612   0.000  0.00  0.00    +0.163 C 
ATOM     40  C   UNL     1      -3.742  -1.788   0.000  0.00  0.00    +0.076 C 
ATOM     41  C   UNL     1      -2.519  -1.326   0.000  0.00  0.00    +0.064 C 
ATOM     42  C   UNL     1      -5.259  -1.788   0.000  0.00  0.00    -0.005 A 
ATOM     43  C   UNL     1      -5.259  -2.687   0.000  0.00  0.00    +0.044 A 
ATOM     44  C   UNL     1      -6.020  -3.111   0.000  0.00  0.00    +0.014 A 
ATOM     45  C   UNL     1      -6.757  -2.687   0.000  0.00  0.00    +0.001 A 
ATOM     46  C   UNL     1      -6.757  -1.788   0.000  0.00  0.00    -0.000 A 
ATOM     47  N   UNL     1      -4.479  -3.111   0.000  0.00  0.00    -0.302 N 
ATOM     48  C   UNL     1      -4.479  -4.067   0.000  0.00  0.00    +0.112 C 
ATOM     49  C   UNL     1      -6.020  -1.389   0.000  0.00  0.00    -0.003 A 
ATOM     50  C   UNL     1      -3.742  -2.687   0.000  0.00  0.00    +0.129 C 
ATOM     51  O   UNL     1      -2.775  -1.969   0.000  0.00  0.00    -0.223 OA
ATOM     52  C   UNL     1      -2.319  -4.772   0.000  0.00  0.00    +0.057 C 
ATOM     53  C   UNL     1      -2.319  -3.861   0.000  0.00  0.00    +0.080 C 
ATOM     54  C   UNL     1      -1.495  -1.820   0.000  0.00  0.00    +0.064 C 
BRANCH  36  55
ATOM     55  C   UNL     1       0.122  -5.209   0.000  0.00  0.00    +0.009 C 
ATOM     56  C   UNL     1       0.958  -4.697   0.000  0.00  0.00    +0.000 C 
ENDBRANCH  36  55
ENDBRANCH  32  33
ENDBRANCH  30  32
ENDBRANCH   1  30
TORSDOF 7
ENDMDL
MODEL      156
REMARK  Name = 4-{3a,5a-dihydroxy-7-[(5-hydroxy-4-methoxy-6-methyloxan-2-yl)oxy]-9a-[(E)-(hydroxyimino)methyl]-11a-methyl-hexadecahydro-1H-cyclopenta[a]phenanthren-1-yl}-2,5-dihydrofuran-2-one
REMARK  5 active torsions:
REMARK  status: ('A' for Active; 'I' for Inactive)
REMARK    1  A    between atoms: C_2  and  C_27
REMARK    2  A    between atoms: C_7  and  C_8
REMARK    3  A    between atoms: C_9  and  O_28
REMARK    4  A    between atoms: C_15  and  O_37
REMARK    5  A    between atoms: O_28  and  C_30
REMARK                            x       y       z     vdW  Elec       q    Type
REMARK                         _______ _______ _______ _____ _____    ______ ____
ROOT
ATOM      1  C   UNL     1       2.844   0.535   0.000  0.00  0.00    +0.123 C 
ATOM      2  O   UNL     1       2.844  -0.431   0.000  0.00  0.00    -0.226 OA
ATOM      3  C   UNL     1       3.688   0.269   0.000  0.00  0.00    +0.030 C 
ATOM      4  C   UNL     1       4.200   0.989   0.000  0.00  0.00    +0.007 C 
ATOM      5  C   UNL     1       3.688   1.671   0.000  0.00  0.00    +0.024 C 
ATOM      6  C   UNL     1       2.053   0.101   0.000  0.00  0.00    +0.038 C 
ATOM      7  C   UNL     1       2.053  -0.821   0.000  0.00  0.00    +0.001 C 
ATOM      8  C   UNL     1       1.288  -1.236   0.000  0.00  0.00    +0.031 C 
ATOM      9  C   UNL     1       0.509  -0.821   0.000  0.00  0.00    +0.134 C 
ATOM     10  C   UNL     1       0.509   0.101   0.000  0.00  0.00    +0.062 C 
ATOM     11  C   UNL     1      -0.295   0.535   0.000  0.00  0.00    +0.010 C 
ATOM     12  C   UNL     1      -1.015   0.101   0.000  0.00  0.00    +0.030 C 
ATOM     13  C   UNL     1      -1.015  -0.821   0.000  0.00  0.00    +0.120 C 
ATOM     14  O   UNL     1       0.509  -1.988   0.000  0.00  0.00    -0.225 OA
ATOM     15  C   UNL     1      -0.295  -1.236   0.000  0.00  0.00    +0.060 C 
ATOM     16  C   UNL     1       1.288   0.535   0.000  0.00  0.00    +0.019 C 
ATOM     17  C   UNL     1       1.288   1.437   0.000  0.00  0.00    -0.004 C 
ATOM     18  C   UNL     1       2.053   1.878   0.000  0.00  0.00    +0.002 C 
ATOM     19  C   UNL     1       2.844   1.437   0.000  0.00  0.00    +0.029 C 
ATOM     20  C   UNL     1       2.844   2.313   0.000  0.00  0.00    +0.003 C 
ENDROOT
BRANCH   5  21
ATOM     21  C   UNL     1       3.986   2.604   0.000  0.00  0.00    +0.005 C 
ATOM     22  C   UNL     1       4.920   2.935   0.000  0.00  0.00    +0.231 C 
ATOM     23  O   UNL     1       4.920   3.915   0.000  0.00  0.00    -0.441 OA
ATOM     24  C   UNL     1       3.986   4.213   0.000  0.00  0.00    +0.341 C 
ATOM     25  O   UNL     1       3.655   5.206   0.000  0.00  0.00    -0.245 OA
ATOM     26  C   UNL     1       3.409   3.357   0.000  0.00  0.00    +0.077 C 
ENDBRANCH   5  21
BRANCH  10  27
ATOM     27  C   UNL     1       0.529   1.281   0.000  0.00  0.00    +0.120 C 
ATOM     28  N   UNL     1      -0.347   1.690   0.000  0.00  0.00    -0.032 NA
ATOM     29  O   UNL     1      -0.347   2.793   0.000  0.00  0.00    -0.143 OA
ENDBRANCH  10  27
BRANCH  13  30
ATOM     30  O   UNL     1      -1.807  -1.288   0.000  0.00  0.00    -0.333 OA
BRANCH  30  31
ATOM     31  C   UNL     1      -1.826  -2.780   0.000  0.00  0.00    +0.238 C 
ATOM     32  C   UNL     1      -2.631  -3.746   0.000  0.00  0.00    +0.094 C 
ATOM     33  C   UNL     1      -4.162  -3.746   0.000  0.00  0.00    +0.153 C 
ATOM     34  C   UNL     1      -4.920  -2.780   0.000  0.00  0.00    +0.206 C 
ATOM     35  C   UNL     1      -4.162  -1.735   0.000  0.00  0.00    +0.150 C 
ATOM     36  C   UNL     1      -4.162  -0.911   0.000  0.00  0.00    +0.035 C 
ATOM     37  O   UNL     1      -4.920  -3.805   0.000  0.00  0.00    -0.218 OA
ATOM     38  O   UNL     1      -2.631  -1.735   0.000  0.00  0.00    -0.330 OA
BRANCH  33  39
ATOM     39  O   UNL     1      -4.162  -4.635   0.000  0.00  0.00    -0.351 OA
ATOM     40  C   UNL     1      -3.273  -5.206   0.000  0.00  0.00    +0.174 C 
ENDBRANCH  33  39
ENDBRANCH  30  31
ENDBRANCH  13  30
TORSDOF 5
ENDMDL
MODEL      157
REMARK  Name = 5-methoxy-2-[(2E)-3-(4-methoxyphenyl)prop-2-enoyl]phenyl difluoroborinate
REMARK  7 active torsions:
REMARK  status: ('A' for Active; 'I' for Inactive)
REMARK    1  A    between atoms: C_1  and  O_4
REMARK    2  A    between atoms: C_2  and  C_5
REMARK    3  A    between atoms: B_3  and  O_4
REMARK    4  A    between atoms: C_5  and  C_6
REMARK    5  A    between atoms: C_9  and  C_14
REMARK    6  A    between atoms: C_13  and  O_21
REMARK    7  A    between atoms: C_16  and  O_22
REMARK                            x       y       z     vdW  Elec       q    Type
REMARK                         _______ _______ _______ _____ _____    ______ ____
ROOT
ATOM      1  C   UNL     1      -1.711   1.004   0.000  0.00  0.00    +0.000 A 
ATOM      2  C   UNL     1      -2.577   0.489   0.000  0.00  0.00    +0.000 A 
ATOM      3  C   UNL     1      -2.577  -0.499   0.000  0.00  0.00    +0.000 A 
ATOM      4  C   UNL     1      -1.711  -0.994   0.000  0.00  0.00    +0.000 A 
ATOM      5  C   UNL     1      -0.864  -0.499   0.000  0.00  0.00    +0.000 A 
ATOM      6  C   UNL     1      -0.864   0.514   0.000  0.00  0.00    +0.000 A 
ENDROOT
BRANCH   3   7
ATOM      7  O   UNL     1      -3.449  -0.999   0.000  0.00  0.00    +0.000 OA
ATOM      8  C   UNL     1      -4.339  -0.524   0.000  0.00  0.00    +0.000 C 
ENDBRANCH   3   7
BRANCH   6   9
ATOM      9  C   UNL     1       0.007   1.004   0.000  0.00  0.00    +0.000 C 
ATOM     10  O   UNL     1       0.032   1.997   0.000  0.00  0.00    +0.000 OA
BRANCH   9  11
ATOM     11  C   UNL     1       0.874   0.514   0.000  0.00  0.00    +0.000 C 
ATOM     12  C   UNL     1       0.874  -0.499   0.000  0.00  0.00    +0.000 C 
BRANCH  12  13
ATOM     13  C   UNL     1       1.735  -0.994   0.000  0.00  0.00    +0.000 A 
ATOM     14  C   UNL     1       2.616  -0.470   0.000  0.00  0.00    +0.000 A 
ATOM     15  C   UNL     1       3.473  -0.994   0.000  0.00  0.00    +0.000 A 
ATOM     16  C   UNL     1       3.473  -1.992   0.000  0.00  0.00    +0.000 A 
ATOM     17  C   UNL     1       2.577  -2.482   0.000  0.00  0.00    +0.000 A 
ATOM     18  C   UNL     1       1.735  -1.992   0.000  0.00  0.00    +0.000 A 
BRANCH  16  19
ATOM     19  O   UNL     1       4.339  -2.482   0.000  0.00  0.00    +0.000 OA
ATOM     20  C   UNL     1       4.339  -3.495   0.000  0.00  0.00    +0.000 C 
ENDBRANCH  16  19
ENDBRANCH  12  13
ENDBRANCH   9  11
ENDBRANCH   6   9
BRANCH   1  21
ATOM     21  O   UNL     1      -1.711   1.997   0.000  0.00  0.00    +0.000 OA
BRANCH  21  22
ATOM     22  B   UNL     1      -2.577   2.487   0.000  0.00  0.00    +0.000 B 
ATOM     23  F   UNL     1      -3.449   1.997   0.000  0.00  0.00    +0.000 F 
ATOM     24  F   UNL     1      -2.577   3.495   0.000  0.00  0.00    +0.000 F 
ENDBRANCH  21  22
ENDBRANCH   1  21
TORSDOF 7
ENDMDL
MODEL      158
REMARK  Name = (1R,14R)-4,17-dimethyl-5-(1-methyl-4,4-diphenyl-3-butenyl)-18-oxapentacyclo[12.3.1.0~1,9~.0~4,8~.0~12,17~]octadecan-2-one
REMARK  5 active torsions:
REMARK  status: ('A' for Active; 'I' for Inactive)
REMARK    1  A    between atoms: C_9  and  C_24
REMARK    2  A    between atoms: C_10  and  C_22
REMARK    3  A    between atoms: C_10  and  C_23
REMARK    4  A    between atoms: C_11  and  C_21
REMARK    5  A    between atoms: C_21  and  C_24
REMARK                            x       y       z     vdW  Elec       q    Type
REMARK                         _______ _______ _______ _____ _____    ______ ____
ROOT
ATOM      1  C   UNL     1      -2.485  -1.721   0.000  0.00  0.00    +0.143 C 
ATOM      2  O   UNL     1      -2.610  -2.649   0.000  0.00  0.00    -0.354 OA
ATOM      3  C   UNL     1      -4.965  -3.136   0.000  0.00  0.00    +0.115 C 
ATOM      4  C   UNL     1      -4.965  -2.197   0.000  0.00  0.00    +0.030 C 
ATOM      5  C   UNL     1      -4.138  -1.721   0.000  0.00  0.00    +0.005 C 
ATOM      6  C   UNL     1      -4.138  -3.606   0.000  0.00  0.00    +0.026 C 
ATOM      7  C   UNL     1      -3.312  -3.136   0.000  0.00  0.00    +0.018 C 
ATOM      8  C   UNL     1      -2.485  -3.606   0.000  0.00  0.00    -0.004 C 
ATOM      9  C   UNL     1      -1.653  -3.136   0.000  0.00  0.00    +0.002 C 
ATOM     10  C   UNL     1      -2.485  -0.782   0.000  0.00  0.00    +0.175 C 
ATOM     11  O   UNL     1      -3.312  -0.312   0.000  0.00  0.00    -0.294 OA
ATOM     12  C   UNL     1      -1.653  -0.312   0.000  0.00  0.00    +0.067 C 
ATOM     13  C   UNL     1      -0.826  -0.782   0.000  0.00  0.00    +0.007 C 
ATOM     14  C   UNL     1      -0.826  -1.721   0.000  0.00  0.00    +0.003 C 
ATOM     15  C   UNL     1       0.826  -1.721   0.000  0.00  0.00    +0.000 C 
ATOM     16  C   UNL     1       0.826  -0.782   0.000  0.00  0.00    +0.000 C 
ATOM     17  C   UNL     1      -0.826   0.187   0.000  0.00  0.00    +0.000 C 
ATOM     18  C   UNL     1       0.000  -0.312   0.000  0.00  0.00    +0.001 C 
ATOM     19  C   UNL     1      -3.312  -2.197   0.000  0.00  0.00    +0.026 C 
ATOM     20  C   UNL     1      -3.324  -1.252   0.000  0.00  0.00    +0.002 C 
ATOM     21  C   UNL     1      -1.653  -2.197   0.000  0.00  0.00    +0.032 C 
ENDROOT
BRANCH  18  22
ATOM     22  C   UNL     1       0.000   0.645   0.000  0.00  0.00    +0.004 C 
ATOM     23  C   UNL     1      -0.725   1.275   0.000  0.00  0.00    +0.000 C 
BRANCH  22  24
ATOM     24  C   UNL     1       0.826   1.103   0.000  0.00  0.00    +0.026 C 
BRANCH  24  25
ATOM     25  C   UNL     1       1.641   0.633   0.000  0.00  0.00    -0.026 C 
ATOM     26  C   UNL     1       2.467   1.085   0.000  0.00  0.00    -0.004 C 
BRANCH  26  27
ATOM     27  C   UNL     1       2.479   2.042   0.000  0.00  0.00    -0.000 A 
ATOM     28  C   UNL     1       1.653   2.530   0.000  0.00  0.00    -0.000 A 
ATOM     29  C   UNL     1       1.683   3.499   0.000  0.00  0.00    -0.000 A 
ATOM     30  C   UNL     1       2.509   3.963   0.000  0.00  0.00    -0.000 A 
ATOM     31  C   UNL     1       3.353   3.469   0.000  0.00  0.00    -0.000 A 
ATOM     32  C   UNL     1       3.324   2.500   0.000  0.00  0.00    -0.000 A 
ENDBRANCH  26  27
BRANCH  26  33
ATOM     33  C   UNL     1       3.282   0.586   0.000  0.00  0.00    -0.000 A 
ATOM     34  C   UNL     1       4.138   1.044   0.000  0.00  0.00    -0.000 A 
ATOM     35  C   UNL     1       4.965   0.544   0.000  0.00  0.00    -0.000 A 
ATOM     36  C   UNL     1       4.935  -0.437   0.000  0.00  0.00    -0.000 A 
ATOM     37  C   UNL     1       4.067  -0.912   0.000  0.00  0.00    -0.000 A 
ATOM     38  C   UNL     1       3.252  -0.384   0.000  0.00  0.00    -0.000 A 
ENDBRANCH  26  33
ENDBRANCH  24  25
ENDBRANCH  22  24
ENDBRANCH  18  22
TORSDOF 5
ENDMDL
MODEL      159
REMARK  Name = (10Z)-8,8-dimethyl-10-[(piperidin-1-yl)methylidene]-2H,8H,9H,10H-pyrano[2,3-h]chromene-2,9-dione
REMARK  1 active torsions:
REMARK  status: ('A' for Active; 'I' for Inactive)
REMARK    1  A    between atoms: C_8  and  N_12
REMARK                            x       y       z     vdW  Elec       q    Type
REMARK                         _______ _______ _______ _____ _____    ______ ____
ROOT
ATOM      1  C   UNL     1      -0.286   0.257   0.000  0.00  0.00    +0.059 C 
ATOM      2  C   UNL     1       0.559  -0.249   0.000  0.00  0.00    +0.064 C 
ATOM      3  C   UNL     1      -1.131  -0.227   0.000  0.00  0.00    +0.210 C 
ATOM      4  O   UNL     1      -1.131  -1.221   0.000  0.00  0.00    -0.288 OA
ATOM      5  C   UNL     1      -1.975   0.240   0.000  0.00  0.00    +0.188 C 
ATOM      6  C   UNL     1      -2.578  -0.851   0.000  0.00  0.00    +0.052 C 
ATOM      7  C   UNL     1      -3.115   0.134   0.000  0.00  0.00    +0.052 C 
ATOM      8  O   UNL     1      -1.975   1.230   0.000  0.00  0.00    -0.475 OA
ATOM      9  C   UNL     1      -1.131   1.736   0.000  0.00  0.00    +0.142 A 
ATOM     10  C   UNL     1      -1.131   2.699   0.000  0.00  0.00    +0.037 A 
ATOM     11  C   UNL     1      -0.286   3.183   0.000  0.00  0.00    +0.006 A 
ATOM     12  C   UNL     1       0.537   2.721   0.000  0.00  0.00    +0.035 A 
ATOM     13  C   UNL     1       1.381   3.236   0.000  0.00  0.00    +0.010 A 
ATOM     14  C   UNL     1       2.261   2.761   0.000  0.00  0.00    +0.082 A 
ATOM     15  C   UNL     1       2.279   1.780   0.000  0.00  0.00    +0.346 A 
ATOM     16  O   UNL     1       3.115   1.252   0.000  0.00  0.00    -0.244 OA
ATOM     17  O   UNL     1       1.425   1.252   0.000  0.00  0.00    -0.421 OA
ATOM     18  C   UNL     1       0.559   1.736   0.000  0.00  0.00    +0.152 A 
ATOM     19  C   UNL     1      -0.286   1.252   0.000  0.00  0.00    +0.073 A 
ENDROOT
BRANCH   2  20
ATOM     20  N   UNL     1       0.537  -1.238   0.000  0.00  0.00    -0.306 N 
ATOM     21  C   UNL     1       1.381  -1.758   0.000  0.00  0.00    +0.091 C 
ATOM     22  C   UNL     1       1.351  -2.761   0.000  0.00  0.00    +0.021 C 
ATOM     23  C   UNL     1       0.475  -3.236   0.000  0.00  0.00    +0.004 C 
ATOM     24  C   UNL     1      -0.361  -2.708   0.000  0.00  0.00    +0.021 C 
ATOM     25  C   UNL     1      -0.326  -1.705   0.000  0.00  0.00    +0.091 C 
ENDBRANCH   2  20
TORSDOF 1
ENDMDL
MODEL      160
REMARK  Name = 4,7,8-trimethoxyfuro[2,3-b]quinoline
REMARK  3 active torsions:
REMARK  status: ('A' for Active; 'I' for Inactive)
REMARK    1  A    between atoms: C_6  and  O_14
REMARK    2  A    between atoms: C_7  and  O_15
REMARK    3  A    between atoms: C_11  and  O_16
REMARK                            x       y       z     vdW  Elec       q    Type
REMARK                         _______ _______ _______ _____ _____    ______ ____
ROOT
ATOM      1  C   UNL     1       0.117  -0.498   0.000  0.00  0.00    +0.124 A 
ATOM      2  C   UNL     1      -0.734  -1.013   0.000  0.00  0.00    +0.190 A 
ATOM      3  C   UNL     1      -1.609  -0.498   0.000  0.00  0.00    +0.174 A 
ATOM      4  C   UNL     1      -1.609   0.498   0.000  0.00  0.00    +0.040 A 
ATOM      5  C   UNL     1      -0.734   1.001   0.000  0.00  0.00    +0.008 A 
ATOM      6  C   UNL     1       0.117   0.498   0.000  0.00  0.00    +0.055 A 
ATOM      7  C   UNL     1       0.980   1.001   0.000  0.00  0.00    +0.145 A 
ATOM      8  C   UNL     1       1.843   0.498   0.000  0.00  0.00    +0.091 A 
ATOM      9  C   UNL     1       1.843  -0.498   0.000  0.00  0.00    +0.233 A 
ATOM     10  O   UNL     1       2.796  -0.806   0.000  0.00  0.00    -0.433 OA
ATOM     11  C   UNL     1       3.370   0.010   0.000  0.00  0.00    +0.182 A 
ATOM     12  C   UNL     1       2.796   0.814   0.000  0.00  0.00    +0.048 A 
ATOM     13  N   UNL     1       0.980  -1.013   0.000  0.00  0.00    -0.208 NA
ENDROOT
BRANCH   2  14
ATOM     14  O   UNL     1      -0.734  -1.997   0.000  0.00  0.00    -0.467 OA
ATOM     15  C   UNL     1       0.117  -2.493   0.000  0.00  0.00    +0.253 C 
ENDBRANCH   2  14
BRANCH   3  16
ATOM     16  O   UNL     1      -2.487  -1.013   0.000  0.00  0.00    -0.468 OA
ATOM     17  C   UNL     1      -3.370  -0.498   0.000  0.00  0.00    +0.253 C 
ENDBRANCH   3  16
BRANCH   7  18
ATOM     18  O   UNL     1       0.980   2.005   0.000  0.00  0.00    -0.471 OA
ATOM     19  C   UNL     1       1.843   2.493   0.000  0.00  0.00    +0.252 C 
ENDBRANCH   7  18
TORSDOF 3
ENDMDL
MODEL      161
REMARK  Name = (1R,2R,8aS)-1-[(3R)-3-hydroxy-3-methyl-4-penten-1-yl]-2,5,5,8a-tetramethyldecahydro-2-naphthalenol
REMARK  4 active torsions:
REMARK  status: ('A' for Active; 'I' for Inactive)
REMARK    1  A    between atoms: C_3  and  C_7
REMARK    2  A    between atoms: C_7  and  C_12
REMARK    3  A    between atoms: C_9  and  C_10
REMARK    4  A    between atoms: C_9  and  C_12
REMARK                            x       y       z     vdW  Elec       q    Type
REMARK                         _______ _______ _______ _____ _____    ______ ____
ROOT
ATOM      1  C   UNL     1      -0.921  -0.213   0.000  0.00  0.00    +0.002 C 
ATOM      2  C   UNL     1      -0.921   1.045   0.000  0.00  0.00    +0.000 C 
ATOM      3  C   UNL     1      -1.765   0.267   0.000  0.00  0.00    +0.000 C 
ATOM      4  C   UNL     1      -2.610  -0.213   0.000  0.00  0.00    +0.000 C 
ATOM      5  C   UNL     1      -2.610  -1.173   0.000  0.00  0.00    +0.000 C 
ATOM      6  C   UNL     1      -1.765  -1.653   0.000  0.00  0.00    +0.000 C 
ATOM      7  C   UNL     1      -0.817  -2.121   0.000  0.00  0.00    +0.000 C 
ATOM      8  C   UNL     1      -2.640  -2.151   0.000  0.00  0.00    +0.000 C 
ATOM      9  C   UNL     1      -0.076   0.267   0.000  0.00  0.00    +0.028 C 
ATOM     10  C   UNL     1       0.769  -0.213   0.000  0.00  0.00    +0.127 C 
ATOM     11  C   UNL     1       0.787   0.839   0.000  0.00  0.00    +0.033 C 
ATOM     12  O   UNL     1       1.692  -0.662   0.000  0.00  0.00    -0.226 OA
ATOM     13  C   UNL     1       0.769  -1.173   0.000  0.00  0.00    +0.030 C 
ATOM     14  C   UNL     1      -0.076  -1.653   0.000  0.00  0.00    +0.003 C 
ATOM     15  C   UNL     1      -0.921  -1.173   0.000  0.00  0.00    +0.000 C 
ENDROOT
BRANCH   9  16
ATOM     16  C   UNL     1      -0.076   1.234   0.000  0.00  0.00    +0.005 C 
BRANCH  16  17
ATOM     17  C   UNL     1       0.769   1.714   0.000  0.00  0.00    +0.035 C 
BRANCH  17  18
ATOM     18  C   UNL     1       1.619   1.234   0.000  0.00  0.00    +0.145 C 
ATOM     19  C   UNL     1       2.640   0.650   0.000  0.00  0.00    +0.038 C 
ATOM     20  O   UNL     1       1.589   2.151   0.000  0.00  0.00    -0.221 OA
BRANCH  18  21
ATOM     21  C   UNL     1       1.619   0.267   0.000  0.00  0.00    +0.003 C 
ATOM     22  C   UNL     1       2.464  -0.213   0.000  0.00  0.00    -0.002 C 
ENDBRANCH  18  21
ENDBRANCH  17  18
ENDBRANCH  16  17
ENDBRANCH   9  16
TORSDOF 4
ENDMDL
MODEL      162
REMARK  Name = bis({8a-methyl-5-methylidene-2-oxo-dodecahydronaphtho[2,3-b]furan-3-yl}methyl)amino acetate
REMARK  6 active torsions:
REMARK  status: ('A' for Active; 'I' for Inactive)
REMARK    1  A    between atoms: C_1  and  C_22
REMARK    2  A    between atoms: C_2  and  C_23
REMARK    3  A    between atoms: N_19  and  C_22
REMARK    4  A    between atoms: N_19  and  C_23
REMARK    5  A    between atoms: N_19  and  O_27
REMARK    6  A    between atoms: C_24  and  O_27
REMARK                            x       y       z     vdW  Elec       q    Type
REMARK                         _______ _______ _______ _____ _____    ______ ____
ROOT
ATOM      1  N   UNL     1       1.558  -1.588   0.000  0.00  0.00    -0.116 NA
ENDROOT
BRANCH   1   2
ATOM      2  C   UNL     1       1.915  -0.657   0.000  0.00  0.00    +0.125 C 
BRANCH   2   3
ATOM      3  C   UNL     1       1.246   0.186   0.000  0.00  0.00    +0.122 C 
ATOM      4  C   UNL     1       1.568   1.162   0.000  0.00  0.00    +0.053 C 
ATOM      5  C   UNL     1       2.450   1.544   0.000  0.00  0.00    +0.008 C 
ATOM      6  C   UNL     1       2.579   2.530   0.000  0.00  0.00    +0.019 C 
ATOM      7  C   UNL     1       3.521   2.936   0.000  0.00  0.00    -0.045 C 
ATOM      8  C   UNL     1       3.625   3.927   0.000  0.00  0.00    +0.022 C 
ATOM      9  C   UNL     1       2.807   4.522   0.000  0.00  0.00    +0.004 C 
ATOM     10  C   UNL     1       1.900   4.130   0.000  0.00  0.00    +0.001 C 
ATOM     11  C   UNL     1       4.328   2.361   0.000  0.00  0.00    -0.009 C 
ATOM     12  C   UNL     1       1.782   3.104   0.000  0.00  0.00    +0.007 C 
ATOM     13  C   UNL     1       0.855   2.683   0.000  0.00  0.00    +0.044 C 
ATOM     14  C   UNL     1       0.949   3.639   0.000  0.00  0.00    +0.000 C 
ATOM     15  C   UNL     1       0.770   1.732   0.000  0.00  0.00    +0.169 C 
ATOM     16  O   UNL     1      -0.087   1.152   0.000  0.00  0.00    -0.452 OA
ATOM     17  C   UNL     1       0.235   0.210   0.000  0.00  0.00    +0.318 C 
ATOM     18  O   UNL     1      -0.335  -0.597   0.000  0.00  0.00    -0.250 OA
ENDBRANCH   2   3
ENDBRANCH   1   2
BRANCH   1  19
ATOM     19  O   UNL     1       2.317  -2.396   0.000  0.00  0.00    -0.365 OA
BRANCH  19  20
ATOM     20  C   UNL     1       3.283  -2.183   0.000  0.00  0.00    +0.336 C 
ATOM     21  C   UNL     1       3.625  -1.251   0.000  0.00  0.00    +0.123 C 
ATOM     22  O   UNL     1       3.991  -2.857   0.000  0.00  0.00    -0.248 OA
ENDBRANCH  19  20
ENDBRANCH   1  19
BRANCH   1  23
ATOM     23  C   UNL     1       0.582  -1.752   0.000  0.00  0.00    +0.125 C 
BRANCH  23  24
ATOM     24  C   UNL     1       0.226  -2.678   0.000  0.00  0.00    +0.122 C 
ATOM     25  C   UNL     1      -0.751  -2.847   0.000  0.00  0.00    +0.053 C 
ATOM     26  C   UNL     1      -1.534  -2.227   0.000  0.00  0.00    +0.008 C 
ATOM     27  C   UNL     1      -2.465  -2.609   0.000  0.00  0.00    +0.019 C 
ATOM     28  C   UNL     1      -3.248  -1.980   0.000  0.00  0.00    -0.045 C 
ATOM     29  C   UNL     1      -4.189  -2.346   0.000  0.00  0.00    +0.022 C 
ATOM     30  C   UNL     1      -4.328  -3.332   0.000  0.00  0.00    +0.004 C 
ATOM     31  C   UNL     1      -3.546  -3.966   0.000  0.00  0.00    +0.001 C 
ATOM     32  C   UNL     1      -3.104  -1.003   0.000  0.00  0.00    -0.009 C 
ATOM     33  C   UNL     1      -2.604  -3.585   0.000  0.00  0.00    +0.007 C 
ATOM     34  C   UNL     1      -1.821  -4.204   0.000  0.00  0.00    +0.044 C 
ATOM     35  C   UNL     1      -2.738  -4.522   0.000  0.00  0.00    +0.000 C 
ATOM     36  C   UNL     1      -0.894  -3.823   0.000  0.00  0.00    +0.169 C 
ATOM     37  O   UNL     1      -0.012  -4.274   0.000  0.00  0.00    -0.452 OA
ATOM     38  C   UNL     1       0.676  -3.560   0.000  0.00  0.00    +0.318 C 
ATOM     39  O   UNL     1       1.653  -3.689   0.000  0.00  0.00    -0.250 OA
ENDBRANCH  23  24
ENDBRANCH   1  23
TORSDOF 6
ENDMDL
MODEL      163
REMARK  Name = {3-[4-(acetyloxy)-3-methoxyphenyl]-6-[3,5,7-tris(acetyloxy)-4-oxo-3,4-dihydro-2H-1-benzopyran-2-yl]-2,3-dihydro-1,4-benzodioxin-2-yl}methyl acetate
REMARK  14 active torsions:
REMARK  status: ('A' for Active; 'I' for Inactive)
REMARK    1  A    between atoms: C_3  and  O_16
REMARK    2  A    between atoms: C_6  and  C_13
REMARK    3  A    between atoms: C_8  and  O_21
REMARK    4  A    between atoms: C_9  and  C_14
REMARK    5  A    between atoms: C_11  and  C_33
REMARK    6  A    between atoms: O_16  and  C_26
REMARK    7  A    between atoms: C_19  and  O_32
REMARK    8  A    between atoms: O_21  and  C_27
REMARK    9  A    between atoms: C_22  and  O_25
REMARK   10  A    between atoms: C_24  and  O_44
REMARK   11  A    between atoms: O_25  and  C_28
REMARK   12  A    between atoms: C_30  and  O_32
REMARK   13  A    between atoms: C_31  and  O_38
REMARK   14  A    between atoms: C_33  and  O_38
REMARK                            x       y       z     vdW  Elec       q    Type
REMARK                         _______ _______ _______ _____ _____    ______ ____
ROOT
ATOM      1  C   UNL     1      -0.415   1.103   0.000  0.00  0.00    +0.024 A 
ATOM      2  C   UNL     1      -0.395   2.084   0.000  0.00  0.00    +0.003 A 
ATOM      3  C   UNL     1       0.507   2.571   0.000  0.00  0.00    +0.040 A 
ATOM      4  C   UNL     1       1.343   2.051   0.000  0.00  0.00    +0.172 A 
ATOM      5  C   UNL     1       1.310   1.044   0.000  0.00  0.00    +0.172 A 
ATOM      6  O   UNL     1       2.147   0.537   0.000  0.00  0.00    -0.468 OA
ATOM      7  C   UNL     1       3.049   1.044   0.000  0.00  0.00    +0.232 C 
ATOM      8  C   UNL     1       3.049   2.005   0.000  0.00  0.00    +0.253 C 
ATOM      9  O   UNL     1       2.212   2.545   0.000  0.00  0.00    -0.468 OA
ATOM     10  C   UNL     1       0.441   0.570   0.000  0.00  0.00    +0.039 A 
ENDROOT
BRANCH   1  14
ATOM     11  C   UNL     1      -2.153  -0.905   0.000  0.00  0.00    +0.223 C 
ATOM     12  O   UNL     1      -2.153  -1.900   0.000  0.00  0.00    -0.287 OA
ATOM     13  C   UNL     1      -1.310  -0.399   0.000  0.00  0.00    +0.273 C 
ATOM     14  C   UNL     1      -1.310   0.596   0.000  0.00  0.00    +0.236 C 
ATOM     15  O   UNL     1      -2.153   1.103   0.000  0.00  0.00    -0.470 OA
ATOM     16  C   UNL     1      -3.022   0.596   0.000  0.00  0.00    +0.148 A 
ATOM     17  C   UNL     1      -3.892   1.103   0.000  0.00  0.00    +0.075 A 
ATOM     18  C   UNL     1      -4.761   0.596   0.000  0.00  0.00    +0.155 A 
ATOM     19  C   UNL     1      -4.761  -0.399   0.000  0.00  0.00    +0.075 A 
ATOM     20  C   UNL     1      -3.892  -0.905   0.000  0.00  0.00    +0.157 A 
ATOM     21  C   UNL     1      -3.022  -0.399   0.000  0.00  0.00    +0.107 A 
BRANCH  13  22
ATOM     22  O   UNL     1      -0.395  -0.873   0.000  0.00  0.00    -0.440 OA
BRANCH  22  23
ATOM     23  C   UNL     1      -0.316  -1.867   0.000  0.00  0.00    +0.318 C 
ATOM     24  C   UNL     1       0.553  -2.341   0.000  0.00  0.00    +0.121 C 
ATOM     25  O   UNL     1      -1.073  -2.486   0.000  0.00  0.00    -0.250 OA
ENDBRANCH  22  23
ENDBRANCH  13  22
BRANCH  18  26
ATOM     26  O   UNL     1      -5.657   1.070   0.000  0.00  0.00    -0.424 OA
BRANCH  26  27
ATOM     27  C   UNL     1      -6.513   0.550   0.000  0.00  0.00    +0.322 C 
ATOM     28  C   UNL     1      -6.545  -0.458   0.000  0.00  0.00    +0.122 C 
ATOM     29  O   UNL     1      -7.428   0.945   0.000  0.00  0.00    -0.250 OA
ENDBRANCH  26  27
ENDBRANCH  18  26
BRANCH  20  30
ATOM     30  O   UNL     1      -3.918  -1.900   0.000  0.00  0.00    -0.424 OA
BRANCH  30  31
ATOM     31  C   UNL     1      -4.787  -2.374   0.000  0.00  0.00    +0.322 C 
ATOM     32  C   UNL     1      -4.866  -3.368   0.000  0.00  0.00    +0.122 C 
ATOM     33  O   UNL     1      -5.676  -1.933   0.000  0.00  0.00    -0.250 OA
ENDBRANCH  30  31
ENDBRANCH  20  30
ENDBRANCH   1  14
BRANCH   7  34
ATOM     34  C   UNL     1       3.918   0.537   0.000  0.00  0.00    +0.024 A 
ATOM     35  C   UNL     1       3.918  -0.491   0.000  0.00  0.00    +0.003 A 
ATOM     36  C   UNL     1       4.787  -0.965   0.000  0.00  0.00    +0.041 A 
ATOM     37  C   UNL     1       5.656  -0.458   0.000  0.00  0.00    +0.182 A 
ATOM     38  C   UNL     1       5.656   0.537   0.000  0.00  0.00    +0.173 A 
ATOM     39  C   UNL     1       4.754   1.044   0.000  0.00  0.00    +0.039 A 
BRANCH  38  40
ATOM     40  O   UNL     1       6.526   1.070   0.000  0.00  0.00    -0.468 OA
ATOM     41  C   UNL     1       7.408   0.616   0.000  0.00  0.00    +0.253 C 
ENDBRANCH  38  40
BRANCH  37  42
ATOM     42  O   UNL     1       6.559  -0.965   0.000  0.00  0.00    -0.421 OA
BRANCH  42  43
ATOM     43  C   UNL     1       6.591  -1.959   0.000  0.00  0.00    +0.322 C 
ATOM     44  C   UNL     1       7.428  -2.466   0.000  0.00  0.00    +0.122 C 
ATOM     45  O   UNL     1       5.781  -2.532   0.000  0.00  0.00    -0.250 OA
ENDBRANCH  42  43
ENDBRANCH  37  42
ENDBRANCH   7  34
BRANCH   8  46
ATOM     46  C   UNL     1       3.951   2.479   0.000  0.00  0.00    +0.256 C 
BRANCH  46  47
ATOM     47  O   UNL     1       4.787   1.939   0.000  0.00  0.00    -0.444 OA
BRANCH  47  48
ATOM     48  C   UNL     1       5.670   2.387   0.000  0.00  0.00    +0.318 C 
ATOM     49  C   UNL     1       5.781   3.368   0.000  0.00  0.00    +0.121 C 
ATOM     50  O   UNL     1       6.539   1.913   0.000  0.00  0.00    -0.250 OA
ENDBRANCH  47  48
ENDBRANCH  46  47
ENDBRANCH   8  46
TORSDOF 14
ENDMDL
MODEL      164
REMARK  Name = 4-{3a,5a,7-trihydroxy-11a-methyl-9a-[(E)-(2-phenylhydrazin-1-ylidene)methyl]-hexadecahydro-1H-cyclopenta[a]phenanthren-1-yl}-2,5-dihydrofuran-2-one
REMARK  4 active torsions:
REMARK  status: ('A' for Active; 'I' for Inactive)
REMARK    1  A    between atoms: C_2  and  C_21
REMARK    2  A    between atoms: C_7  and  C_8
REMARK    3  A    between atoms: N_19  and  N_25
REMARK    4  A    between atoms: N_25  and  C_30
REMARK                            x       y       z     vdW  Elec       q    Type
REMARK                         _______ _______ _______ _____ _____    ______ ____
ROOT
ATOM      1  C   UNL     1       1.548  -0.740   0.000  0.00  0.00    +0.123 C 
ATOM      2  O   UNL     1       1.548  -1.745   0.000  0.00  0.00    -0.226 OA
ATOM      3  C   UNL     1       2.479  -1.079   0.000  0.00  0.00    +0.030 C 
ATOM      4  C   UNL     1       3.040  -0.253   0.000  0.00  0.00    +0.007 C 
ATOM      5  C   UNL     1       2.448   0.549   0.000  0.00  0.00    +0.024 C 
ATOM      6  C   UNL     1       0.672  -1.258   0.000  0.00  0.00    +0.038 C 
ATOM      7  C   UNL     1       0.672  -2.263   0.000  0.00  0.00    +0.001 C 
ATOM      8  C   UNL     1      -0.203  -2.769   0.000  0.00  0.00    +0.031 C 
ATOM      9  C   UNL     1      -1.061  -2.263   0.000  0.00  0.00    +0.134 C 
ATOM     10  C   UNL     1      -1.061  -1.258   0.000  0.00  0.00    +0.061 C 
ATOM     11  C   UNL     1      -1.918  -0.740   0.000  0.00  0.00    +0.010 C 
ATOM     12  C   UNL     1      -2.805  -1.258   0.000  0.00  0.00    +0.033 C 
ATOM     13  C   UNL     1      -2.805  -2.263   0.000  0.00  0.00    +0.154 C 
ATOM     14  O   UNL     1      -3.693  -2.769   0.000  0.00  0.00    -0.223 OA
ATOM     15  O   UNL     1      -1.061  -3.212   0.000  0.00  0.00    -0.225 OA
ATOM     16  C   UNL     1      -1.918  -2.769   0.000  0.00  0.00    +0.064 C 
ATOM     17  C   UNL     1      -0.203  -0.740   0.000  0.00  0.00    +0.019 C 
ATOM     18  C   UNL     1      -0.203   0.253   0.000  0.00  0.00    -0.004 C 
ATOM     19  C   UNL     1       0.641   0.758   0.000  0.00  0.00    +0.002 C 
ATOM     20  C   UNL     1       1.548   0.296   0.000  0.00  0.00    +0.029 C 
ATOM     21  C   UNL     1       1.548   1.258   0.000  0.00  0.00    +0.003 C 
ENDROOT
BRANCH   5  22
ATOM     22  C   UNL     1       2.713   1.498   0.000  0.00  0.00    +0.005 C 
ATOM     23  C   UNL     1       2.004   2.398   0.000  0.00  0.00    +0.231 C 
ATOM     24  O   UNL     1       2.701   3.126   0.000  0.00  0.00    -0.441 OA
ATOM     25  C   UNL     1       3.663   2.738   0.000  0.00  0.00    +0.341 C 
ATOM     26  O   UNL     1       4.520   3.212   0.000  0.00  0.00    -0.245 OA
ATOM     27  C   UNL     1       3.663   1.850   0.000  0.00  0.00    +0.077 C 
ENDBRANCH   5  22
BRANCH  10  28
ATOM     28  C   UNL     1      -1.061  -0.265   0.000  0.00  0.00    +0.094 C 
ATOM     29  N   UNL     1      -1.918   0.222   0.000  0.00  0.00    -0.162 NA
BRANCH  29  30
ATOM     30  N   UNL     1      -1.918   1.215   0.000  0.00  0.00    -0.117 NA
BRANCH  30  31
ATOM     31  C   UNL     1      -2.775   1.702   0.000  0.00  0.00    +0.091 A 
ATOM     32  C   UNL     1      -3.632   1.184   0.000  0.00  0.00    +0.018 A 
ATOM     33  C   UNL     1      -4.520   1.690   0.000  0.00  0.00    +0.001 A 
ATOM     34  C   UNL     1      -4.520   2.695   0.000  0.00  0.00    +0.000 A 
ATOM     35  C   UNL     1      -3.663   3.212   0.000  0.00  0.00    +0.001 A 
ATOM     36  C   UNL     1      -2.775   2.707   0.000  0.00  0.00    +0.018 A 
ENDBRANCH  30  31
ENDBRANCH  29  30
ENDBRANCH  10  28
TORSDOF 4
ENDMDL
MODEL      165
REMARK  Name = 4-{9a-[(E)-(benzylimino)methyl]-3a,5a,7-trihydroxy-11a-methyl-hexadecahydro-1H-cyclopenta[a]phenanthren-1-yl}-2,5-dihydrofuran-2-one
REMARK  4 active torsions:
REMARK  status: ('A' for Active; 'I' for Inactive)
REMARK    1  A    between atoms: C_2  and  C_21
REMARK    2  A    between atoms: C_7  and  C_8
REMARK    3  A    between atoms: N_22  and  C_29
REMARK    4  A    between atoms: C_29  and  C_31
REMARK                            x       y       z     vdW  Elec       q    Type
REMARK                         _______ _______ _______ _____ _____    ______ ____
ROOT
ATOM      1  C   UNL     1       1.538  -0.741   0.000  0.00  0.00    +0.123 C 
ATOM      2  O   UNL     1       1.538  -1.748   0.000  0.00  0.00    -0.226 OA
ATOM      3  C   UNL     1       2.471  -1.081   0.000  0.00  0.00    +0.030 C 
ATOM      4  C   UNL     1       3.033  -0.253   0.000  0.00  0.00    +0.007 C 
ATOM      5  C   UNL     1       2.440   0.550   0.000  0.00  0.00    +0.024 C 
ATOM      6  C   UNL     1       0.661  -1.260   0.000  0.00  0.00    +0.038 C 
ATOM      7  C   UNL     1       0.661  -2.267   0.000  0.00  0.00    +0.001 C 
ATOM      8  C   UNL     1      -0.216  -2.773   0.000  0.00  0.00    +0.031 C 
ATOM      9  C   UNL     1      -1.075  -2.267   0.000  0.00  0.00    +0.133 C 
ATOM     10  C   UNL     1      -1.075  -1.260   0.000  0.00  0.00    +0.059 C 
ATOM     11  C   UNL     1      -1.933  -0.741   0.000  0.00  0.00    +0.010 C 
ATOM     12  C   UNL     1      -2.823  -1.260   0.000  0.00  0.00    +0.033 C 
ATOM     13  C   UNL     1      -2.823  -2.267   0.000  0.00  0.00    +0.154 C 
ATOM     14  O   UNL     1      -3.712  -2.773   0.000  0.00  0.00    -0.223 OA
ATOM     15  O   UNL     1      -1.075  -3.218   0.000  0.00  0.00    -0.225 OA
ATOM     16  C   UNL     1      -1.933  -2.773   0.000  0.00  0.00    +0.064 C 
ATOM     17  C   UNL     1      -0.216  -0.741   0.000  0.00  0.00    +0.019 C 
ATOM     18  C   UNL     1      -0.216   0.253   0.000  0.00  0.00    -0.004 C 
ATOM     19  C   UNL     1       0.630   0.760   0.000  0.00  0.00    +0.002 C 
ATOM     20  C   UNL     1       1.538   0.296   0.000  0.00  0.00    +0.029 C 
ATOM     21  C   UNL     1       1.538   1.260   0.000  0.00  0.00    +0.003 C 
ENDROOT
BRANCH   5  22
ATOM     22  C   UNL     1       2.705   1.501   0.000  0.00  0.00    +0.005 C 
ATOM     23  C   UNL     1       1.995   2.403   0.000  0.00  0.00    +0.231 C 
ATOM     24  O   UNL     1       2.693   3.131   0.000  0.00  0.00    -0.441 OA
ATOM     25  C   UNL     1       3.657   2.742   0.000  0.00  0.00    +0.341 C 
ATOM     26  O   UNL     1       4.515   3.218   0.000  0.00  0.00    -0.245 OA
ATOM     27  C   UNL     1       3.657   1.853   0.000  0.00  0.00    +0.077 C 
ENDBRANCH   5  22
BRANCH  10  28
ATOM     28  C   UNL     1      -1.075  -0.266   0.000  0.00  0.00    +0.068 C 
ATOM     29  N   UNL     1      -1.933   0.222   0.000  0.00  0.00    -0.269 NA
BRANCH  29  30
ATOM     30  C   UNL     1      -1.933   1.217   0.000  0.00  0.00    +0.151 C 
BRANCH  30  31
ATOM     31  C   UNL     1      -2.792   1.705   0.000  0.00  0.00    +0.002 A 
ATOM     32  C   UNL     1      -3.650   1.217   0.000  0.00  0.00    -0.002 A 
ATOM     33  C   UNL     1      -4.515   1.723   0.000  0.00  0.00    -0.000 A 
ATOM     34  C   UNL     1      -4.515   2.711   0.000  0.00  0.00    -0.000 A 
ATOM     35  C   UNL     1      -3.650   3.218   0.000  0.00  0.00    -0.000 A 
ATOM     36  C   UNL     1      -2.792   2.730   0.000  0.00  0.00    -0.002 A 
ENDBRANCH  30  31
ENDBRANCH  29  30
ENDBRANCH  10  28
TORSDOF 4
ENDMDL
MODEL      166
REMARK  Name = 8-hydroxy-1,2,6-trimethoxy-9H-xanthen-9-one
REMARK  3 active torsions:
REMARK  status: ('A' for Active; 'I' for Inactive)
REMARK    1  A    between atoms: C_8  and  O_17
REMARK    2  A    between atoms: C_12  and  O_19
REMARK    3  A    between atoms: C_13  and  O_18
REMARK                            x       y       z     vdW  Elec       q    Type
REMARK                         _______ _______ _______ _____ _____    ______ ____
ROOT
ATOM      1  C   UNL     1       0.885   0.230   0.000  0.00  0.00    +0.111 A 
ATOM      2  C   UNL     1       1.758  -0.252   0.000  0.00  0.00    +0.178 A 
ATOM      3  C   UNL     1       2.607   0.252   0.000  0.00  0.00    +0.173 A 
ATOM      4  C   UNL     1       2.607   1.253   0.000  0.00  0.00    +0.043 A 
ATOM      5  C   UNL     1       1.735   1.740   0.000  0.00  0.00    +0.041 A 
ATOM      6  C   UNL     1       0.885   1.235   0.000  0.00  0.00    +0.151 A 
ATOM      7  O   UNL     1       0.018   1.740   0.000  0.00  0.00    -0.453 OA
ATOM      8  C   UNL     1      -0.854   1.235   0.000  0.00  0.00    +0.154 A 
ATOM      9  C   UNL     1      -0.854   0.230   0.000  0.00  0.00    +0.113 A 
ATOM     10  C   UNL     1      -1.731  -0.279   0.000  0.00  0.00    +0.205 A 
ATOM     11  O   UNL     1      -1.731  -1.275   0.000  0.00  0.00    -0.286 OA
ATOM     12  C   UNL     1      -2.599   0.230   0.000  0.00  0.00    +0.079 A 
ATOM     13  C   UNL     1      -2.599   1.235   0.000  0.00  0.00    +0.145 A 
ATOM     14  C   UNL     1      -1.731   1.740   0.000  0.00  0.00    +0.075 A 
ATOM     15  C   UNL     1       0.018  -0.279   0.000  0.00  0.00    +0.208 A 
ATOM     16  O   UNL     1       0.018  -1.275   0.000  0.00  0.00    -0.286 OA
ENDROOT
BRANCH   2  17
ATOM     17  O   UNL     1       1.775  -1.257   0.000  0.00  0.00    -0.468 OA
ATOM     18  C   UNL     1       2.638  -1.740   0.000  0.00  0.00    +0.253 C 
ENDBRANCH   2  17
BRANCH   3  19
ATOM     19  O   UNL     1       3.471  -0.226   0.000  0.00  0.00    -0.468 OA
ATOM     20  C   UNL     1       4.321   0.283   0.000  0.00  0.00    +0.253 C 
ENDBRANCH   3  19
BRANCH  13  21
ATOM     21  O   UNL     1      -3.470   1.718   0.000  0.00  0.00    -0.471 OA
ATOM     22  C   UNL     1      -4.321   1.208   0.000  0.00  0.00    +0.252 C 
ENDBRANCH  13  21
TORSDOF 3
ENDMDL
MODEL      167
REMARK  Name = 1-[(E)-[(naphthalen-1-yl)imino]methyl]naphthalen-2-ol
REMARK  2 active torsions:
REMARK  status: ('A' for Active; 'I' for Inactive)
REMARK    1  A    between atoms: C_1  and  C_2
REMARK    2  A    between atoms: N_3  and  C_6
REMARK                            x       y       z     vdW  Elec       q    Type
REMARK                         _______ _______ _______ _____ _____    ______ ____
ROOT
ATOM      1  C   UNL     1       0.429  -0.248   0.000  0.00  0.00    +0.102 C 
ATOM      2  N   UNL     1      -0.429   0.248   0.000  0.00  0.00    -0.244 NA
ENDROOT
BRANCH   1   3
ATOM      3  C   UNL     1       0.429  -1.246   0.000  0.00  0.00    +0.058 A 
ATOM      4  C   UNL     1       1.283  -1.743   0.000  0.00  0.00    +0.197 A 
ATOM      5  O   UNL     1       2.151  -1.246   0.000  0.00  0.00    -0.287 OA
ATOM      6  C   UNL     1       1.283  -2.760   0.000  0.00  0.00    +0.042 A 
ATOM      7  C   UNL     1       0.429  -3.257   0.000  0.00  0.00    +0.003 A 
ATOM      8  C   UNL     1      -0.439  -2.760   0.000  0.00  0.00    +0.000 A 
ATOM      9  C   UNL     1      -1.307  -3.257   0.000  0.00  0.00    +0.000 A 
ATOM     10  C   UNL     1      -2.175  -2.760   0.000  0.00  0.00    +0.000 A 
ATOM     11  C   UNL     1      -2.175  -1.743   0.000  0.00  0.00    +0.000 A 
ATOM     12  C   UNL     1      -1.307  -1.246   0.000  0.00  0.00    +0.000 A 
ATOM     13  C   UNL     1      -0.439  -1.743   0.000  0.00  0.00    +0.005 A 
ENDBRANCH   1   3
BRANCH   2  14
ATOM     14  C   UNL     1      -0.429   1.242   0.000  0.00  0.00    +0.081 A 
ATOM     15  C   UNL     1      -1.297   1.738   0.000  0.00  0.00    +0.019 A 
ATOM     16  C   UNL     1      -1.297   2.746   0.000  0.00  0.00    +0.002 A 
ATOM     17  C   UNL     1      -0.429   3.257   0.000  0.00  0.00    +0.000 A 
ATOM     18  C   UNL     1       0.429   2.746   0.000  0.00  0.00    +0.001 A 
ATOM     19  C   UNL     1       1.283   3.243   0.000  0.00  0.00    +0.000 A 
ATOM     20  C   UNL     1       2.151   2.760   0.000  0.00  0.00    +0.000 A 
ATOM     21  C   UNL     1       2.175   1.777   0.000  0.00  0.00    +0.000 A 
ATOM     22  C   UNL     1       1.307   1.256   0.000  0.00  0.00    +0.001 A 
ATOM     23  C   UNL     1       0.429   1.728   0.000  0.00  0.00    +0.018 A 
ENDBRANCH   2  14
TORSDOF 2
ENDMDL
MODEL      168
REMARK  Name = 5-(hydroxymethyl)-2,5,8a-trimethyl-octahydro-2H-dispiro[naphthalene-1,2':5',3''-bis(oxolane)]-6-ol
REMARK  1 active torsions:
REMARK  status: ('A' for Active; 'I' for Inactive)
REMARK    1  A    between atoms: C_4  and  C_16
REMARK                            x       y       z     vdW  Elec       q    Type
REMARK                         _______ _______ _______ _____ _____    ______ ____
ROOT
ATOM      1  C   UNL     1       0.004  -0.270   0.000  0.00  0.00    +0.023 C 
ATOM      2  C   UNL     1      -0.162   0.648   0.000  0.00  0.00    +0.002 C 
ATOM      3  C   UNL     1      -0.872   0.237   0.000  0.00  0.00    +0.005 C 
ATOM      4  C   UNL     1      -1.739  -0.270   0.000  0.00  0.00    +0.033 C 
ATOM      5  C   UNL     1      -1.739  -1.287   0.000  0.00  0.00    +0.154 C 
ATOM      6  C   UNL     1      -0.872  -1.794   0.000  0.00  0.00    +0.059 C 
ATOM      7  C   UNL     1      -0.033  -2.325   0.000  0.00  0.00    +0.005 C 
ATOM      8  O   UNL     1      -2.615  -1.777   0.000  0.00  0.00    -0.223 OA
ATOM      9  C   UNL     1       0.004  -1.287   0.000  0.00  0.00    +0.007 C 
ATOM     10  C   UNL     1       0.872  -1.794   0.000  0.00  0.00    +0.000 C 
ATOM     11  C   UNL     1       1.748  -1.287   0.000  0.00  0.00    +0.002 C 
ATOM     12  C   UNL     1       1.748  -0.270   0.000  0.00  0.00    +0.025 C 
ATOM     13  C   UNL     1       2.615   0.228   0.000  0.00  0.00    +0.002 C 
ATOM     14  C   UNL     1       0.851   0.199   0.000  0.00  0.00    +0.092 C 
ATOM     15  C   UNL     1       0.075   0.756   0.000  0.00  0.00    +0.030 C 
ATOM     16  C   UNL     1       0.344   1.744   0.000  0.00  0.00    +0.032 C 
ATOM     17  C   UNL     1       1.312   1.752   0.000  0.00  0.00    +0.122 C 
ATOM     18  C   UNL     1       0.951   2.649   0.000  0.00  0.00    +0.169 C 
ATOM     19  O   UNL     1       1.710   3.309   0.000  0.00  0.00    -0.351 OA
ATOM     20  C   UNL     1       2.557   2.777   0.000  0.00  0.00    +0.145 C 
ATOM     21  C   UNL     1       2.337   1.810   0.000  0.00  0.00    +0.062 C 
ATOM     22  O   UNL     1       1.690   0.814   0.000  0.00  0.00    -0.361 OA
ENDROOT
BRANCH   6  23
ATOM     23  C   UNL     1      -1.727  -2.304   0.000  0.00  0.00    +0.184 C 
ATOM     24  O   UNL     1      -1.719  -3.309   0.000  0.00  0.00    -0.220 OA
ENDBRANCH   6  23
TORSDOF 1
ENDMDL
MODEL      169
REMARK  Name = methyl 3-(1,3-dimethyl-2-{[(2-oxo-2H-chromen-7-yl)oxy]methyl}-6-(prop-1-en-2-yl)cyclohex-3-en-1-yl)propanoate
REMARK  8 active torsions:
REMARK  status: ('A' for Active; 'I' for Inactive)
REMARK    1  A    between atoms: C_1  and  C_9
REMARK    2  A    between atoms: C_2  and  C_16
REMARK    3  A    between atoms: C_3  and  C_12
REMARK    4  A    between atoms: C_9  and  C_24
REMARK    5  A    between atoms: C_16  and  O_20
REMARK    6  A    between atoms: C_17  and  C_24
REMARK    7  A    between atoms: C_17  and  O_27
REMARK    8  A    between atoms: O_20  and  C_22
REMARK                            x       y       z     vdW  Elec       q    Type
REMARK                         _______ _______ _______ _____ _____    ______ ____
ROOT
ATOM      1  C   UNL     1      -1.485  -1.700   0.000  0.00  0.00    +0.011 C 
ATOM      2  C   UNL     1      -2.465  -1.923   0.000  0.00  0.00    +0.001 C 
ATOM      3  C   UNL     1      -1.757  -2.681   0.000  0.00  0.00    +0.023 C 
ATOM      4  C   UNL     1      -1.054  -3.389   0.000  0.00  0.00    +0.029 C 
ATOM      5  C   UNL     1      -0.085  -3.149   0.000  0.00  0.00    -0.034 C 
ATOM      6  C   UNL     1       0.188  -2.168   0.000  0.00  0.00    -0.045 C 
ATOM      7  C   UNL     1       1.158  -1.923   0.000  0.00  0.00    +0.026 C 
ATOM      8  C   UNL     1      -0.531  -1.438   0.000  0.00  0.00    +0.062 C 
ENDROOT
BRANCH   3   9
ATOM      9  C   UNL     1      -2.738  -2.915   0.000  0.00  0.00    -0.044 C 
ATOM     10  C   UNL     1      -2.989  -3.885   0.000  0.00  0.00    +0.026 C 
ATOM     11  C   UNL     1      -3.430  -2.212   0.000  0.00  0.00    -0.009 C 
ENDBRANCH   3   9
BRANCH   1  12
ATOM     12  C   UNL     1      -1.196  -0.730   0.000  0.00  0.00    +0.012 C 
BRANCH  12  13
ATOM     13  C   UNL     1      -1.877  -0.038   0.000  0.00  0.00    +0.110 C 
BRANCH  13  14
ATOM     14  C   UNL     1      -2.831  -0.273   0.000  0.00  0.00    +0.317 C 
ATOM     15  O   UNL     1      -3.119  -1.270   0.000  0.00  0.00    -0.250 OA
BRANCH  14  16
ATOM     16  O   UNL     1      -3.446   0.458   0.000  0.00  0.00    -0.444 OA
ATOM     17  C   UNL     1      -4.427   0.316   0.000  0.00  0.00    +0.256 C 
ENDBRANCH  14  16
ENDBRANCH  13  14
ENDBRANCH  12  13
ENDBRANCH   1  12
BRANCH   8  18
ATOM     18  C   UNL     1      -0.253  -0.485   0.000  0.00  0.00    +0.209 C 
BRANCH  18  19
ATOM     19  O   UNL     1       0.700  -0.223   0.000  0.00  0.00    -0.475 OA
BRANCH  19  20
ATOM     20  C   UNL     1       0.973   0.719   0.000  0.00  0.00    +0.142 A 
ATOM     21  C   UNL     1       0.270   1.438   0.000  0.00  0.00    +0.037 A 
ATOM     22  C   UNL     1       0.531   2.408   0.000  0.00  0.00    +0.006 A 
ATOM     23  C   UNL     1       1.496   2.653   0.000  0.00  0.00    +0.035 A 
ATOM     24  C   UNL     1       2.193   1.934   0.000  0.00  0.00    +0.152 A 
ATOM     25  O   UNL     1       3.157   2.168   0.000  0.00  0.00    -0.421 OA
ATOM     26  C   UNL     1       3.446   3.138   0.000  0.00  0.00    +0.346 A 
ATOM     27  C   UNL     1       2.754   3.885   0.000  0.00  0.00    +0.082 A 
ATOM     28  O   UNL     1       4.427   3.373   0.000  0.00  0.00    -0.244 OA
ATOM     29  C   UNL     1       1.774   3.634   0.000  0.00  0.00    +0.010 A 
ATOM     30  C   UNL     1       1.915   0.981   0.000  0.00  0.00    +0.074 A 
ENDBRANCH  19  20
ENDBRANCH  18  19
ENDBRANCH   8  18
TORSDOF 8
ENDMDL
MODEL      170
REMARK  Name = methyl 3-(1,3-dimethyl-2-{[(2-oxo-2H-chromen-7-yl)oxy]methyl}-6-(propan-2-ylidene)cyclohexyl)propanoate
REMARK  7 active torsions:
REMARK  status: ('A' for Active; 'I' for Inactive)
REMARK    1  A    between atoms: C_1  and  C_7
REMARK    2  A    between atoms: C_3  and  C_14
REMARK    3  A    between atoms: C_7  and  C_23
REMARK    4  A    between atoms: C_14  and  O_20
REMARK    5  A    between atoms: C_15  and  C_23
REMARK    6  A    between atoms: C_15  and  O_26
REMARK    7  A    between atoms: O_20  and  C_21
REMARK                            x       y       z     vdW  Elec       q    Type
REMARK                         _______ _______ _______ _____ _____    ______ ____
ROOT
ATOM      1  C   UNL     1      -1.483  -1.696   0.000  0.00  0.00    +0.019 C 
ATOM      2  C   UNL     1      -2.464  -1.924   0.000  0.00  0.00    +0.004 C 
ATOM      3  C   UNL     1      -0.529  -1.434   0.000  0.00  0.00    +0.047 C 
ATOM      4  C   UNL     1       0.191  -2.170   0.000  0.00  0.00    +0.004 C 
ATOM      5  C   UNL     1       1.156  -1.924   0.000  0.00  0.00    +0.000 C 
ATOM      6  C   UNL     1      -0.087  -3.151   0.000  0.00  0.00    +0.004 C 
ATOM      7  C   UNL     1      -1.052  -3.391   0.000  0.00  0.00    +0.021 C 
ATOM      8  C   UNL     1      -1.755  -2.677   0.000  0.00  0.00    -0.053 C 
ATOM      9  C   UNL     1      -2.737  -2.917   0.000  0.00  0.00    -0.051 C 
ATOM     10  C   UNL     1      -2.988  -3.887   0.000  0.00  0.00    +0.026 C 
ATOM     11  C   UNL     1      -3.429  -2.213   0.000  0.00  0.00    +0.026 C 
ENDROOT
BRANCH   1  12
ATOM     12  C   UNL     1      -1.199  -0.730   0.000  0.00  0.00    +0.015 C 
BRANCH  12  13
ATOM     13  C   UNL     1      -1.875  -0.027   0.000  0.00  0.00    +0.110 C 
BRANCH  13  14
ATOM     14  C   UNL     1      -2.835  -0.273   0.000  0.00  0.00    +0.317 C 
ATOM     15  O   UNL     1      -3.118  -1.270   0.000  0.00  0.00    -0.250 OA
BRANCH  14  16
ATOM     16  O   UNL     1      -3.446   0.463   0.000  0.00  0.00    -0.444 OA
ATOM     17  C   UNL     1      -4.427   0.316   0.000  0.00  0.00    +0.256 C 
ENDBRANCH  14  16
ENDBRANCH  13  14
ENDBRANCH  12  13
ENDBRANCH   1  12
BRANCH   3  18
ATOM     18  C   UNL     1      -0.251  -0.485   0.000  0.00  0.00    +0.206 C 
BRANCH  18  19
ATOM     19  O   UNL     1       0.698  -0.224   0.000  0.00  0.00    -0.475 OA
BRANCH  19  20
ATOM     20  C   UNL     1       0.976   0.725   0.000  0.00  0.00    +0.142 A 
ATOM     21  C   UNL     1       0.273   1.445   0.000  0.00  0.00    +0.037 A 
ATOM     22  C   UNL     1       0.534   2.410   0.000  0.00  0.00    +0.006 A 
ATOM     23  C   UNL     1       1.499   2.655   0.000  0.00  0.00    +0.035 A 
ATOM     24  C   UNL     1       2.197   1.935   0.000  0.00  0.00    +0.152 A 
ATOM     25  O   UNL     1       3.162   2.170   0.000  0.00  0.00    -0.421 OA
ATOM     26  C   UNL     1       3.446   3.146   0.000  0.00  0.00    +0.346 A 
ATOM     27  C   UNL     1       2.759   3.887   0.000  0.00  0.00    +0.082 A 
ATOM     28  O   UNL     1       4.427   3.374   0.000  0.00  0.00    -0.244 OA
ATOM     29  C   UNL     1       1.777   3.636   0.000  0.00  0.00    +0.010 A 
ATOM     30  C   UNL     1       1.908   0.987   0.000  0.00  0.00    +0.074 A 
ENDBRANCH  19  20
ENDBRANCH  18  19
ENDBRANCH   3  18
TORSDOF 7
ENDMDL
MODEL      171
REMARK  Name = [6-({5-[(2-aminobenzoyloxy)methyl]-3,4-dihydroxy-2-(hydroxymethyl)oxolan-2-yl}oxy)-3,4,5-trihydroxyoxan-2-yl]methyl 2-aminobenzoate
REMARK  11 active torsions:
REMARK  status: ('A' for Active; 'I' for Inactive)
REMARK    1  A    between atoms: C_1  and  O_6
REMARK    2  A    between atoms: C_1  and  C_25
REMARK    3  A    between atoms: C_2  and  O_6
REMARK    4  A    between atoms: C_11  and  C_21
REMARK    5  A    between atoms: C_12  and  C_22
REMARK    6  A    between atoms: C_13  and  C_16
REMARK    7  A    between atoms: C_14  and  C_15
REMARK    8  A    between atoms: C_15  and  O_18
REMARK    9  A    between atoms: C_16  and  O_17
REMARK   10  A    between atoms: O_17  and  C_22
REMARK   11  A    between atoms: O_18  and  C_21
REMARK                            x       y       z     vdW  Elec       q    Type
REMARK                         _______ _______ _______ _____ _____    ______ ____
ROOT
ATOM      1  O   UNL     1      -0.063  -2.073   0.000  0.00  0.00    -0.303 OA
ENDROOT
BRANCH   1   2
ATOM      2  C   UNL     1      -0.704  -1.264   0.000  0.00  0.00    +0.271 C 
ATOM      3  O   UNL     1      -1.388  -0.374   0.000  0.00  0.00    -0.324 OA
ATOM      4  C   UNL     1      -2.689  -0.365   0.000  0.00  0.00    +0.194 C 
ATOM      5  C   UNL     1      -3.433  -1.264   0.000  0.00  0.00    +0.216 C 
ATOM      6  C   UNL     1      -2.736  -2.153   0.000  0.00  0.00    +0.220 C 
ATOM      7  O   UNL     1      -2.726  -1.310   0.000  0.00  0.00    -0.217 OA
ATOM      8  O   UNL     1      -3.433  -2.195   0.000  0.00  0.00    -0.218 OA
ATOM      9  C   UNL     1      -1.397  -2.162   0.000  0.00  0.00    +0.241 C 
ATOM     10  O   UNL     1      -1.420  -3.005   0.000  0.00  0.00    -0.215 OA
BRANCH   4  11
ATOM     11  C   UNL     1      -2.712   0.229   0.000  0.00  0.00    +0.241 C 
BRANCH  11  12
ATOM     12  O   UNL     1      -3.386   0.613   0.000  0.00  0.00    -0.443 OA
BRANCH  12  13
ATOM     13  C   UNL     1      -3.400   1.343   0.000  0.00  0.00    +0.343 C 
ATOM     14  O   UNL     1      -2.712   1.802   0.000  0.00  0.00    -0.245 OA
BRANCH  13  15
ATOM     15  C   UNL     1      -4.341   1.666   0.000  0.00  0.00    +0.092 A 
ATOM     16  C   UNL     1      -4.509   2.658   0.000  0.00  0.00    +0.008 A 
ATOM     17  C   UNL     1      -5.478   3.005   0.000  0.00  0.00    +0.000 A 
ATOM     18  C   UNL     1      -6.241   2.340   0.000  0.00  0.00    +0.001 A 
ATOM     19  C   UNL     1      -6.059   1.367   0.000  0.00  0.00    +0.018 A 
ATOM     20  C   UNL     1      -5.104   1.016   0.000  0.00  0.00    +0.095 A 
ATOM     21  N   UNL     1      -4.926   0.028   0.000  0.00  0.00    -0.128 NA
ENDBRANCH  13  15
ENDBRANCH  12  13
ENDBRANCH  11  12
ENDBRANCH   4  11
ENDBRANCH   1   2
BRANCH   1  22
ATOM     22  C   UNL     1       0.587  -1.240   0.000  0.00  0.00    +0.252 C 
ATOM     23  O   UNL     1       1.748  -0.623   0.000  0.00  0.00    -0.326 OA
ATOM     24  C   UNL     1       2.857  -1.240   0.000  0.00  0.00    +0.194 C 
ATOM     25  C   UNL     1       2.417  -2.106   0.000  0.00  0.00    +0.218 C 
ATOM     26  O   UNL     1       2.398  -1.409   0.000  0.00  0.00    -0.217 OA
ATOM     27  C   UNL     1       1.027  -2.106   0.000  0.00  0.00    +0.238 C 
ATOM     28  O   UNL     1       1.027  -2.902   0.000  0.00  0.00    -0.215 OA
BRANCH  22  29
ATOM     29  C   UNL     1       0.587  -0.454   0.000  0.00  0.00    +0.241 C 
ATOM     30  O   UNL     1      -0.288   0.028   0.000  0.00  0.00    -0.215 OA
ENDBRANCH  22  29
BRANCH  24  31
ATOM     31  C   UNL     1       2.857  -2.251   0.000  0.00  0.00    +0.241 C 
BRANCH  31  32
ATOM     32  O   UNL     1       3.733  -2.724   0.000  0.00  0.00    -0.443 OA
BRANCH  32  33
ATOM     33  C   UNL     1       4.575  -2.195   0.000  0.00  0.00    +0.343 C 
ATOM     34  O   UNL     1       5.455  -2.668   0.000  0.00  0.00    -0.245 OA
BRANCH  33  35
ATOM     35  C   UNL     1       4.533  -1.207   0.000  0.00  0.00    +0.092 A 
ATOM     36  C   UNL     1       3.658  -0.749   0.000  0.00  0.00    +0.008 A 
ATOM     37  C   UNL     1       3.611   0.243   0.000  0.00  0.00    +0.000 A 
ATOM     38  C   UNL     1       4.430   0.791   0.000  0.00  0.00    +0.001 A 
ATOM     39  C   UNL     1       5.319   0.332   0.000  0.00  0.00    +0.018 A 
ATOM     40  C   UNL     1       5.361  -0.655   0.000  0.00  0.00    +0.095 A 
ATOM     41  N   UNL     1       6.241  -1.095   0.000  0.00  0.00    -0.128 NA
ENDBRANCH  33  35
ENDBRANCH  32  33
ENDBRANCH  31  32
ENDBRANCH  24  31
ENDBRANCH   1  22
TORSDOF 11
ENDMDL
MODEL      172
REMARK  Name = 2,3,4,5,6-pentahydroxyhexyl 2-aminobenzoate
REMARK  8 active torsions:
REMARK  status: ('A' for Active; 'I' for Inactive)
REMARK    1  A    between atoms: C_1  and  C_3
REMARK    2  A    between atoms: C_2  and  C_4
REMARK    3  A    between atoms: C_2  and  C_5
REMARK    4  A    between atoms: C_3  and  O_6
REMARK    5  A    between atoms: C_4  and  C_8
REMARK    6  A    between atoms: C_5  and  C_10
REMARK    7  A    between atoms: O_6  and  C_10
REMARK    8  A    between atoms: C_8  and  C_18
REMARK                            x       y       z     vdW  Elec       q    Type
REMARK                         _______ _______ _______ _____ _____    ______ ____
ROOT
ATOM      1  C   UNL     1      -0.394  -1.587   0.000  0.00  0.00    +0.237 C 
ENDROOT
BRANCH   1   2
ATOM      2  C   UNL     1       0.461  -1.091   0.000  0.00  0.00    +0.243 C 
ATOM      3  O   UNL     1       0.970  -1.956   0.000  0.00  0.00    -0.224 OA
BRANCH   2   4
ATOM      4  C   UNL     1       1.312  -0.592   0.000  0.00  0.00    +0.227 C 
ATOM      5  O   UNL     1       0.808   0.272   0.000  0.00  0.00    -0.225 OA
BRANCH   4   6
ATOM      6  C   UNL     1       2.167  -0.097   0.000  0.00  0.00    +0.226 C 
ATOM      7  O   UNL     1       2.676  -0.961   0.000  0.00  0.00    -0.225 OA
BRANCH   6   8
ATOM      8  C   UNL     1       3.022   0.398   0.000  0.00  0.00    +0.232 C 
ATOM      9  O   UNL     1       3.526  -0.466   0.000  0.00  0.00    -0.225 OA
BRANCH   8  10
ATOM     10  C   UNL     1       3.873   0.898   0.000  0.00  0.00    +0.210 C 
ATOM     11  O   UNL     1       3.873   1.893   0.000  0.00  0.00    -0.218 OA
ENDBRANCH   8  10
ENDBRANCH   6   8
ENDBRANCH   4   6
ENDBRANCH   2   4
ENDBRANCH   1   2
BRANCH   1  12
ATOM     12  O   UNL     1      -1.258  -1.091   0.000  0.00  0.00    -0.443 OA
BRANCH  12  13
ATOM     13  C   UNL     1      -1.258  -0.074   0.000  0.00  0.00    +0.343 C 
ATOM     14  O   UNL     1      -0.394   0.443   0.000  0.00  0.00    -0.245 OA
BRANCH  13  15
ATOM     15  C   UNL     1      -2.145   0.443   0.000  0.00  0.00    +0.092 A 
ATOM     16  C   UNL     1      -3.009  -0.074   0.000  0.00  0.00    +0.008 A 
ATOM     17  C   UNL     1      -3.873   0.443   0.000  0.00  0.00    +0.000 A 
ATOM     18  C   UNL     1      -3.873   1.438   0.000  0.00  0.00    +0.001 A 
ATOM     19  C   UNL     1      -3.009   1.933   0.000  0.00  0.00    +0.018 A 
ATOM     20  C   UNL     1      -2.145   1.438   0.000  0.00  0.00    +0.095 A 
ATOM     21  N   UNL     1      -1.281   1.956   0.000  0.00  0.00    -0.128 NA
ENDBRANCH  13  15
ENDBRANCH  12  13
ENDBRANCH   1  12
TORSDOF 8
ENDMDL
MODEL      173
REMARK  Name = 1,5-dibutyl 2-{[10-({6-[(1,5-dibutoxy-1,5-dioxopentan-2-yl)carbamoyl]-3-({6-[(1,5-dibutoxy-1,5-dioxopentan-2-yl)carbamoyl]-3,4,5-trihydroxyoxan-2-yl}oxy)-4,5-dihydroxyoxan-2-yl}oxy)-2,4a,6a,6b,9,9,12a -heptamethyl-13-oxo-1,2,3,4,4a,5,6,6a,6b,7,8,8a,9,10,11,12,12a,12b,13,14b-icosahydropicen-2-yl]formamido}pentanedioate
REMARK  46 active torsions:
REMARK  status: ('A' for Active; 'I' for Inactive)
REMARK    1  A    between atoms: C_5  and  C_22
REMARK    2  A    between atoms: C_6  and  C_23
REMARK    3  A    between atoms: C_7  and  O_24
REMARK    4  A    between atoms: C_9  and  O_24
REMARK    5  A    between atoms: C_10  and  O_32
REMARK    6  A    between atoms: C_26  and  C_27
REMARK    7  A    between atoms: N_29  and  C_42
REMARK    8  A    between atoms: N_30  and  C_43
REMARK    9  A    between atoms: O_32  and  C_33
REMARK   10  A    between atoms: N_34  and  C_44
REMARK   11  A    between atoms: C_39  and  C_44
REMARK   12  A    between atoms: C_39  and  O_76
REMARK   13  A    between atoms: C_40  and  C_43
REMARK   14  A    between atoms: C_40  and  O_77
REMARK   15  A    between atoms: C_41  and  C_42
REMARK   16  A    between atoms: C_41  and  O_78
REMARK   17  A    between atoms: C_42  and  C_62
REMARK   18  A    between atoms: C_43  and  C_64
REMARK   19  A    between atoms: C_44  and  C_63
REMARK   20  A    between atoms: C_45  and  C_73
REMARK   21  A    between atoms: C_45  and  O_81
REMARK   22  A    between atoms: C_46  and  C_74
REMARK   23  A    between atoms: C_46  and  O_79
REMARK   24  A    between atoms: C_47  and  C_72
REMARK   25  A    between atoms: C_47  and  O_80
REMARK   26  A    between atoms: C_62  and  C_74
REMARK   27  A    between atoms: C_63  and  C_73
REMARK   28  A    between atoms: C_64  and  C_72
REMARK   29  A    between atoms: O_76  and  C_86
REMARK   30  A    between atoms: O_77  and  C_88
REMARK   31  A    between atoms: O_78  and  C_87
REMARK   32  A    between atoms: O_79  and  C_90
REMARK   33  A    between atoms: O_80  and  C_91
REMARK   34  A    between atoms: O_81  and  C_89
REMARK   35  A    between atoms: C_86  and  C_93
REMARK   36  A    between atoms: C_87  and  C_92
REMARK   37  A    between atoms: C_88  and  C_95
REMARK   38  A    between atoms: C_89  and  C_94
REMARK   39  A    between atoms: C_90  and  C_96
REMARK   40  A    between atoms: C_91  and  C_97
REMARK   41  A    between atoms: C_92  and  C_100
REMARK   42  A    between atoms: C_93  and  C_102
REMARK   43  A    between atoms: C_94  and  C_98
REMARK   44  A    between atoms: C_95  and  C_99
REMARK   45  A    between atoms: C_96  and  C_101
REMARK   46  A    between atoms: C_97  and  C_103
REMARK                            x       y       z     vdW  Elec       q    Type
REMARK                         _______ _______ _______ _____ _____    ______ ____
ROOT
ATOM      1  C   UNL     1      -2.267  -2.378   0.000  0.00  0.00    +0.266 C 
ATOM      2  O   UNL     1      -2.921  -1.546   0.000  0.00  0.00    -0.319 OA
ATOM      3  C   UNL     1      -4.126  -1.546   0.000  0.00  0.00    +0.228 C 
ATOM      4  C   UNL     1      -4.772  -2.378   0.000  0.00  0.00    +0.221 C 
ATOM      5  C   UNL     1      -4.126  -3.159   0.000  0.00  0.00    +0.217 C 
ATOM      6  O   UNL     1      -4.126  -2.318   0.000  0.00  0.00    -0.217 OA
ATOM      7  O   UNL     1      -4.755  -3.320   0.000  0.00  0.00    -0.217 OA
ATOM      8  C   UNL     1      -2.921  -3.159   0.000  0.00  0.00    +0.207 C 
ENDROOT
BRANCH   3   9
ATOM      9  C   UNL     1      -4.126  -1.036   0.000  0.00  0.00    +0.271 C 
ATOM     10  O   UNL     1      -3.515  -0.671   0.000  0.00  0.00    -0.271 OA
ATOM     11  N   UNL     1      -4.636  -0.773   0.000  0.00  0.00    -0.200 NA
BRANCH  11  12
ATOM     12  C   UNL     1      -4.636   0.204   0.000  0.00  0.00    +0.214 C 
BRANCH  12  13
ATOM     13  C   UNL     1      -5.612   0.204   0.000  0.00  0.00    +0.331 C 
ATOM     14  O   UNL     1      -6.096  -0.645   0.000  0.00  0.00    -0.249 OA
BRANCH  13  15
ATOM     15  O   UNL     1      -6.122   1.044   0.000  0.00  0.00    -0.448 OA
BRANCH  15  16
ATOM     16  C   UNL     1      -7.081   1.044   0.000  0.00  0.00    +0.208 C 
BRANCH  16  17
ATOM     17  C   UNL     1      -7.565   1.877   0.000  0.00  0.00    +0.047 C 
BRANCH  17  18
ATOM     18  C   UNL     1      -8.542   1.877   0.000  0.00  0.00    +0.004 C 
ATOM     19  C   UNL     1      -9.017   2.691   0.000  0.00  0.00    +0.000 C 
ENDBRANCH  17  18
ENDBRANCH  16  17
ENDBRANCH  15  16
ENDBRANCH  13  15
ENDBRANCH  12  13
BRANCH  12  20
ATOM     20  C   UNL     1      -4.636   1.189   0.000  0.00  0.00    +0.038 C 
BRANCH  20  21
ATOM     21  C   UNL     1      -3.795   1.672   0.000  0.00  0.00    +0.112 C 
BRANCH  21  22
ATOM     22  C   UNL     1      -3.795   2.649   0.000  0.00  0.00    +0.317 C 
ATOM     23  O   UNL     1      -4.670   3.201   0.000  0.00  0.00    -0.250 OA
BRANCH  22  24
ATOM     24  O   UNL     1      -2.921   3.022   0.000  0.00  0.00    -0.448 OA
BRANCH  24  25
ATOM     25  C   UNL     1      -2.938   3.999   0.000  0.00  0.00    +0.208 C 
BRANCH  25  26
ATOM     26  C   UNL     1      -1.885   4.407   0.000  0.00  0.00    +0.047 C 
BRANCH  26  27
ATOM     27  C   UNL     1      -1.885   5.366   0.000  0.00  0.00    +0.004 C 
ATOM     28  C   UNL     1      -0.985   5.791   0.000  0.00  0.00    +0.000 C 
ENDBRANCH  26  27
ENDBRANCH  25  26
ENDBRANCH  24  25
ENDBRANCH  22  24
ENDBRANCH  21  22
ENDBRANCH  20  21
ENDBRANCH  12  20
ENDBRANCH  11  12
ENDBRANCH   3   9
BRANCH   8  29
ATOM     29  O   UNL     1      -2.904  -4.543   0.000  0.00  0.00    -0.323 OA
BRANCH  29  30
ATOM     30  C   UNL     1      -2.904  -6.028   0.000  0.00  0.00    +0.270 C 
ATOM     31  C   UNL     1      -3.533  -6.861   0.000  0.00  0.00    +0.241 C 
ATOM     32  O   UNL     1      -3.533  -7.701   0.000  0.00  0.00    -0.215 OA
ATOM     33  C   UNL     1      -4.712  -6.861   0.000  0.00  0.00    +0.220 C 
ATOM     34  O   UNL     1      -4.712  -6.028   0.000  0.00  0.00    -0.217 OA
ATOM     35  C   UNL     1      -5.409  -6.028   0.000  0.00  0.00    +0.221 C 
ATOM     36  C   UNL     1      -4.712  -5.196   0.000  0.00  0.00    +0.228 C 
ATOM     37  O   UNL     1      -5.409  -7.090   0.000  0.00  0.00    -0.217 OA
ATOM     38  O   UNL     1      -3.533  -5.196   0.000  0.00  0.00    -0.319 OA
BRANCH  36  39
ATOM     39  C   UNL     1      -4.712  -4.661   0.000  0.00  0.00    +0.271 C 
ATOM     40  O   UNL     1      -4.084  -4.075   0.000  0.00  0.00    -0.271 OA
ATOM     41  N   UNL     1      -5.451  -4.279   0.000  0.00  0.00    -0.200 NA
BRANCH  41  42
ATOM     42  C   UNL     1      -6.444  -4.279   0.000  0.00  0.00    +0.214 C 
BRANCH  42  43
ATOM     43  C   UNL     1      -6.444  -3.277   0.000  0.00  0.00    +0.331 C 
ATOM     44  O   UNL     1      -5.587  -2.768   0.000  0.00  0.00    -0.249 OA
BRANCH  43  45
ATOM     45  O   UNL     1      -7.259  -2.768   0.000  0.00  0.00    -0.448 OA
BRANCH  45  46
ATOM     46  C   UNL     1      -8.074  -3.277   0.000  0.00  0.00    +0.208 C 
BRANCH  46  47
ATOM     47  C   UNL     1      -8.949  -2.810   0.000  0.00  0.00    +0.047 C 
BRANCH  47  48
ATOM     48  C   UNL     1      -9.764  -3.277   0.000  0.00  0.00    +0.004 C 
ATOM     49  C   UNL     1     -10.647  -2.810   0.000  0.00  0.00    +0.000 C 
ENDBRANCH  47  48
ENDBRANCH  46  47
ENDBRANCH  45  46
ENDBRANCH  43  45
ENDBRANCH  42  43
BRANCH  42  50
ATOM     50  C   UNL     1      -7.404  -4.279   0.000  0.00  0.00    +0.038 C 
BRANCH  50  51
ATOM     51  C   UNL     1      -7.896  -5.111   0.000  0.00  0.00    +0.112 C 
BRANCH  51  52
ATOM     52  C   UNL     1      -8.847  -5.111   0.000  0.00  0.00    +0.317 C 
ATOM     53  O   UNL     1      -9.221  -4.237   0.000  0.00  0.00    -0.250 OA
BRANCH  52  54
ATOM     54  O   UNL     1      -9.399  -5.986   0.000  0.00  0.00    -0.448 OA
BRANCH  54  55
ATOM     55  C   UNL     1      -8.949  -6.861   0.000  0.00  0.00    +0.208 C 
BRANCH  55  56
ATOM     56  C   UNL     1      -9.484  -7.676   0.000  0.00  0.00    +0.047 C 
BRANCH  56  57
ATOM     57  C   UNL     1      -9.034  -8.533   0.000  0.00  0.00    +0.004 C 
ATOM     58  C   UNL     1      -9.544  -9.348   0.000  0.00  0.00    +0.000 C 
ENDBRANCH  56  57
ENDBRANCH  55  56
ENDBRANCH  54  55
ENDBRANCH  52  54
ENDBRANCH  51  52
ENDBRANCH  50  51
ENDBRANCH  42  50
ENDBRANCH  41  42
ENDBRANCH  36  39
ENDBRANCH  29  30
ENDBRANCH   8  29
BRANCH   1  59
ATOM     59  O   UNL     1      -2.267  -1.197   0.000  0.00  0.00    -0.331 OA
BRANCH  59  81
ATOM     60  C   UNL     1       2.479   1.596   0.000  0.00  0.00    -0.042 C 
ATOM     61  C   UNL     1       3.456   2.267   0.000  0.00  0.00    +0.019 C 
ATOM     62  C   UNL     1       4.415   1.715   0.000  0.00  0.00    +0.003 C 
ATOM     63  C   UNL     1       5.493   1.061   0.000  0.00  0.00    +0.000 C 
ATOM     64  C   UNL     1       5.374   2.267   0.000  0.00  0.00    +0.001 C 
ATOM     65  C   UNL     1       5.374   3.362   0.000  0.00  0.00    +0.009 C 
ATOM     66  C   UNL     1       4.415   3.897   0.000  0.00  0.00    +0.071 C 
ATOM     67  C   UNL     1       3.456   4.508   0.000  0.00  0.00    +0.009 C 
ATOM     68  C   UNL     1       4.415   0.594   0.000  0.00  0.00    +0.001 C 
ATOM     69  C   UNL     1       3.456   0.042   0.000  0.00  0.00    +0.004 C 
ATOM     70  C   UNL     1       3.456   3.362   0.000  0.00  0.00    +0.013 C 
ATOM     71  C   UNL     1       1.724   2.063   0.000  0.00  0.00    +0.029 C 
ATOM     72  C   UNL     1       0.968   1.596   0.000  0.00  0.00    +0.172 C 
ATOM     73  O   UNL     1       0.017   2.140   0.000  0.00  0.00    -0.291 OA
ATOM     74  C   UNL     1       0.968   0.696   0.000  0.00  0.00    +0.062 C 
ATOM     75  C   UNL     1       1.724   0.272   0.000  0.00  0.00    +0.010 C 
ATOM     76  C   UNL     1       1.724   1.121   0.000  0.00  0.00    +0.001 C 
ATOM     77  C   UNL     1       1.724  -0.713   0.000  0.00  0.00    +0.001 C 
ATOM     78  C   UNL     1       0.968  -1.197   0.000  0.00  0.00    +0.000 C 
ATOM     79  C   UNL     1       0.195  -0.713   0.000  0.00  0.00    +0.003 C 
ATOM     80  C   UNL     1      -0.620  -1.197   0.000  0.00  0.00    +0.025 C 
ATOM     81  C   UNL     1      -1.392  -0.713   0.000  0.00  0.00    +0.118 C 
ATOM     82  C   UNL     1      -1.392   0.272   0.000  0.00  0.00    +0.030 C 
ATOM     83  C   UNL     1      -0.620   0.696   0.000  0.00  0.00    +0.003 C 
ATOM     84  C   UNL     1       0.051  -2.114   0.000  0.00  0.00    +0.002 C 
ATOM     85  C   UNL     1      -1.172  -2.301   0.000  0.00  0.00    +0.002 C 
ATOM     86  C   UNL     1       0.195   0.272   0.000  0.00  0.00    +0.007 C 
ATOM     87  C   UNL     1       0.195   1.189   0.000  0.00  0.00    +0.000 C 
ATOM     88  C   UNL     1       2.479   0.696   0.000  0.00  0.00    +0.016 C 
ATOM     89  C   UNL     1       2.496  -0.340   0.000  0.00  0.00    +0.004 C 
BRANCH  66  90
ATOM     90  C   UNL     1       5.332   4.525   0.000  0.00  0.00    +0.241 C 
ATOM     91  O   UNL     1       5.332   5.705   0.000  0.00  0.00    -0.273 OA
ATOM     92  N   UNL     1       6.801   3.795   0.000  0.00  0.00    -0.202 NA
BRANCH  92  93
ATOM     93  C   UNL     1       7.633   4.279   0.000  0.00  0.00    +0.214 C 
BRANCH  93  94
ATOM     94  C   UNL     1       7.123   5.137   0.000  0.00  0.00    +0.331 C 
ATOM     95  O   UNL     1       6.249   5.137   0.000  0.00  0.00    -0.249 OA
BRANCH  94  96
ATOM     96  O   UNL     1       7.616   5.977   0.000  0.00  0.00    -0.448 OA
BRANCH  96  97
ATOM     97  C   UNL     1       7.107   6.818   0.000  0.00  0.00    +0.208 C 
BRANCH  97  98
ATOM     98  C   UNL     1       7.573   7.676   0.000  0.00  0.00    +0.047 C 
BRANCH  98  99
ATOM     99  C   UNL     1       7.064   8.516   0.000  0.00  0.00    +0.004 C 
ATOM    100  C   UNL     1       7.531   9.348   0.000  0.00  0.00    +0.000 C 
ENDBRANCH  98  99
ENDBRANCH  97  98
ENDBRANCH  96  97
ENDBRANCH  94  96
ENDBRANCH  93  94
BRANCH  93 101
ATOM    101  C   UNL     1       8.142   3.430   0.000  0.00  0.00    +0.038 C 
BRANCH 101 102
ATOM    102  C   UNL     1       9.119   3.430   0.000  0.00  0.00    +0.112 C 
BRANCH 102 103
ATOM    103  C   UNL     1       9.611   2.590   0.000  0.00  0.00    +0.317 C 
ATOM    104  O   UNL     1      10.647   2.573   0.000  0.00  0.00    -0.250 OA
BRANCH 103 105
ATOM    105  O   UNL     1       9.043   1.817   0.000  0.00  0.00    -0.448 OA
BRANCH 105 106
ATOM    106  C   UNL     1       9.424   0.900   0.000  0.00  0.00    +0.208 C 
BRANCH 106 107
ATOM    107  C   UNL     1       8.838   0.085   0.000  0.00  0.00    +0.047 C 
BRANCH 107 108
ATOM    108  C   UNL     1       9.221  -0.815   0.000  0.00  0.00    +0.004 C 
ATOM    109  C   UNL     1       8.677  -1.588   0.000  0.00  0.00    +0.000 C 
ENDBRANCH 107 108
ENDBRANCH 106 107
ENDBRANCH 105 106
ENDBRANCH 103 105
ENDBRANCH 102 103
ENDBRANCH 101 102
ENDBRANCH  93 101
ENDBRANCH  92  93
ENDBRANCH  66  90
ENDBRANCH  59  81
ENDBRANCH   1  59
TORSDOF 46
ENDMDL
MODEL      174
REMARK  Name = methyl 10-({4,5-dihydroxy-6-[(1-methoxy-1-oxopropan-2-yl)carbamoyl]-3-({3,4,5-trihydroxy-6-[(1-methoxy-1-oxopropan-2-yl)carbamoyl]oxan-2-yl}oxy)oxan-2-yl}oxy)-2,4a,6a,6b,9,9,12a-heptamethyl-13-oxo-1,2 ,3,4,4a,5,6,6a,6b,7,8,8a,9,10,11,12,12a,12b,13,14b-icosahydropicene-2-carboxylate
REMARK  14 active torsions:
REMARK  status: ('A' for Active; 'I' for Inactive)
REMARK    1  A    between atoms: C_5  and  C_22
REMARK    2  A    between atoms: C_6  and  C_23
REMARK    3  A    between atoms: C_7  and  O_24
REMARK    4  A    between atoms: C_9  and  O_24
REMARK    5  A    between atoms: C_10  and  O_31
REMARK    6  A    between atoms: C_26  and  C_34
REMARK    7  A    between atoms: N_28  and  C_41
REMARK    8  A    between atoms: N_29  and  C_40
REMARK    9  A    between atoms: O_31  and  C_32
REMARK   10  A    between atoms: C_34  and  O_60
REMARK   11  A    between atoms: C_38  and  C_40
REMARK   12  A    between atoms: C_38  and  O_61
REMARK   13  A    between atoms: C_39  and  C_41
REMARK   14  A    between atoms: C_39  and  O_62
REMARK                            x       y       z     vdW  Elec       q    Type
REMARK                         _______ _______ _______ _____ _____    ______ ____
ROOT
ATOM      1  C   UNL     1      -2.185  -1.379   0.000  0.00  0.00    +0.266 C 
ATOM      2  O   UNL     1      -2.834  -0.553   0.000  0.00  0.00    -0.319 OA
ATOM      3  C   UNL     1      -4.033  -0.553   0.000  0.00  0.00    +0.228 C 
ATOM      4  C   UNL     1      -4.682  -1.379   0.000  0.00  0.00    +0.221 C 
ATOM      5  C   UNL     1      -4.033  -2.147   0.000  0.00  0.00    +0.217 C 
ATOM      6  O   UNL     1      -4.033  -1.320   0.000  0.00  0.00    -0.217 OA
ATOM      7  O   UNL     1      -4.657  -2.307   0.000  0.00  0.00    -0.217 OA
ATOM      8  C   UNL     1      -2.834  -2.147   0.000  0.00  0.00    +0.207 C 
ENDROOT
BRANCH   3   9
ATOM      9  C   UNL     1      -4.033  -0.046   0.000  0.00  0.00    +0.271 C 
ATOM     10  O   UNL     1      -3.425   0.325   0.000  0.00  0.00    -0.271 OA
ATOM     11  N   UNL     1      -4.539   0.223   0.000  0.00  0.00    -0.200 NA
BRANCH  11  12
ATOM     12  C   UNL     1      -4.539   1.194   0.000  0.00  0.00    +0.214 C 
ATOM     13  C   UNL     1      -4.539   2.164   0.000  0.00  0.00    +0.029 C 
BRANCH  12  14
ATOM     14  C   UNL     1      -5.509   1.194   0.000  0.00  0.00    +0.331 C 
ATOM     15  O   UNL     1      -5.998   0.342   0.000  0.00  0.00    -0.249 OA
BRANCH  14  16
ATOM     16  O   UNL     1      -6.015   2.021   0.000  0.00  0.00    -0.443 OA
ATOM     17  C   UNL     1      -6.968   2.021   0.000  0.00  0.00    +0.256 C 
ENDBRANCH  14  16
ENDBRANCH  12  14
ENDBRANCH  11  12
ENDBRANCH   3   9
BRANCH   1  18
ATOM     18  O   UNL     1      -2.185  -0.207   0.000  0.00  0.00    -0.331 OA
BRANCH  18  40
ATOM     19  C   UNL     1       2.531   2.569   0.000  0.00  0.00    -0.042 C 
ATOM     20  C   UNL     1       3.501   3.235   0.000  0.00  0.00    +0.019 C 
ATOM     21  C   UNL     1       4.454   2.687   0.000  0.00  0.00    +0.003 C 
ATOM     22  C   UNL     1       5.526   2.046   0.000  0.00  0.00    +0.000 C 
ATOM     23  C   UNL     1       5.407   3.235   0.000  0.00  0.00    +0.001 C 
ATOM     24  C   UNL     1       5.407   4.332   0.000  0.00  0.00    +0.011 C 
ATOM     25  C   UNL     1       4.454   4.855   0.000  0.00  0.00    +0.090 C 
ATOM     26  C   UNL     1       3.501   5.462   0.000  0.00  0.00    +0.011 C 
ATOM     27  C   UNL     1       4.454   1.573   0.000  0.00  0.00    +0.001 C 
ATOM     28  C   UNL     1       3.501   1.033   0.000  0.00  0.00    +0.004 C 
ATOM     29  C   UNL     1       3.501   4.332   0.000  0.00  0.00    +0.015 C 
ATOM     30  C   UNL     1       1.780   3.033   0.000  0.00  0.00    +0.029 C 
ATOM     31  C   UNL     1       1.029   2.569   0.000  0.00  0.00    +0.172 C 
ATOM     32  O   UNL     1       0.076   3.117   0.000  0.00  0.00    -0.291 OA
ATOM     33  C   UNL     1       1.029   1.675   0.000  0.00  0.00    +0.062 C 
ATOM     34  C   UNL     1       1.780   1.253   0.000  0.00  0.00    +0.010 C 
ATOM     35  C   UNL     1       1.780   2.105   0.000  0.00  0.00    +0.001 C 
ATOM     36  C   UNL     1       1.780   0.283   0.000  0.00  0.00    +0.001 C 
ATOM     37  C   UNL     1       1.029  -0.207   0.000  0.00  0.00    +0.000 C 
ATOM     38  C   UNL     1       0.262   0.283   0.000  0.00  0.00    +0.003 C 
ATOM     39  C   UNL     1      -0.548  -0.207   0.000  0.00  0.00    +0.025 C 
ATOM     40  C   UNL     1      -1.316   0.283   0.000  0.00  0.00    +0.118 C 
ATOM     41  C   UNL     1      -1.316   1.253   0.000  0.00  0.00    +0.030 C 
ATOM     42  C   UNL     1      -0.548   1.675   0.000  0.00  0.00    +0.003 C 
ATOM     43  C   UNL     1       0.118  -1.118   0.000  0.00  0.00    +0.002 C 
ATOM     44  C   UNL     1      -1.097  -1.295   0.000  0.00  0.00    +0.002 C 
ATOM     45  C   UNL     1       0.262   1.253   0.000  0.00  0.00    +0.007 C 
ATOM     46  C   UNL     1       0.262   2.164   0.000  0.00  0.00    +0.000 C 
ATOM     47  C   UNL     1       2.531   1.675   0.000  0.00  0.00    +0.016 C 
ATOM     48  C   UNL     1       2.548   0.645   0.000  0.00  0.00    +0.004 C 
BRANCH  25  49
ATOM     49  C   UNL     1       5.365   5.487   0.000  0.00  0.00    +0.316 C 
ATOM     50  O   UNL     1       5.365   6.660   0.000  0.00  0.00    -0.250 OA
BRANCH  49  51
ATOM     51  O   UNL     1       6.437   4.855   0.000  0.00  0.00    -0.444 OA
ATOM     52  C   UNL     1       7.289   5.403   0.000  0.00  0.00    +0.256 C 
ENDBRANCH  49  51
ENDBRANCH  25  49
ENDBRANCH  18  40
ENDBRANCH   1  18
BRANCH   8  53
ATOM     53  O   UNL     1      -2.818  -3.522   0.000  0.00  0.00    -0.323 OA
BRANCH  53  54
ATOM     54  C   UNL     1      -2.818  -5.007   0.000  0.00  0.00    +0.270 C 
ATOM     55  C   UNL     1      -3.442  -5.834   0.000  0.00  0.00    +0.241 C 
ATOM     56  O   UNL     1      -3.442  -6.660   0.000  0.00  0.00    -0.215 OA
ATOM     57  C   UNL     1      -4.615  -5.834   0.000  0.00  0.00    +0.220 C 
ATOM     58  O   UNL     1      -4.615  -5.007   0.000  0.00  0.00    -0.217 OA
ATOM     59  C   UNL     1      -5.306  -5.007   0.000  0.00  0.00    +0.221 C 
ATOM     60  C   UNL     1      -4.615  -4.172   0.000  0.00  0.00    +0.228 C 
ATOM     61  O   UNL     1      -5.306  -6.053   0.000  0.00  0.00    -0.217 OA
ATOM     62  O   UNL     1      -3.442  -4.172   0.000  0.00  0.00    -0.319 OA
BRANCH  60  63
ATOM     63  C   UNL     1      -4.615  -3.649   0.000  0.00  0.00    +0.271 C 
ATOM     64  O   UNL     1      -3.991  -3.058   0.000  0.00  0.00    -0.271 OA
ATOM     65  N   UNL     1      -5.348  -3.260   0.000  0.00  0.00    -0.200 NA
BRANCH  65  66
ATOM     66  C   UNL     1      -6.335  -3.260   0.000  0.00  0.00    +0.214 C 
ATOM     67  C   UNL     1      -7.289  -3.260   0.000  0.00  0.00    +0.029 C 
BRANCH  66  68
ATOM     68  C   UNL     1      -6.335  -2.273   0.000  0.00  0.00    +0.331 C 
ATOM     69  O   UNL     1      -5.492  -1.768   0.000  0.00  0.00    -0.249 OA
BRANCH  68  70
ATOM     70  O   UNL     1      -7.145  -1.768   0.000  0.00  0.00    -0.443 OA
ATOM     71  C   UNL     1      -7.145  -0.789   0.000  0.00  0.00    +0.256 C 
ENDBRANCH  68  70
ENDBRANCH  66  68
ENDBRANCH  65  66
ENDBRANCH  60  63
ENDBRANCH  53  54
ENDBRANCH   8  53
TORSDOF 14
ENDMDL
MODEL      175
REMARK  Name = ethyl 2-[(10-{[4,5-bis(acetyloxy)-6-{[1-ethoxy-3-(1H-indol-3-yl)-1-oxopropan-2-yl]carbamoyl}-3-{[3,4,5-tris(acetyloxy)-6-{[1-ethoxy-3-(1H-indol-3-yl)-1-oxopropan-2-yl]carbamoyl}oxan-2-yl]oxy}oxan-2-yl ]oxy}-2,4a,6a,6b,9,9,12a-heptamethyl-13-oxo-1,2,3,4,4a,5,6,6a,6b,7,8,8a,9,10,11,12,12a,12b,13,14b-icosahydropicen-2-yl)formamido]-3-(1H-indol-3-yl)propanoate
REMARK  35 active torsions:
REMARK  status: ('A' for Active; 'I' for Inactive)
REMARK    1  A    between atoms: C_4  and  C_21
REMARK    2  A    between atoms: C_5  and  C_22
REMARK    3  A    between atoms: C_7  and  O_24
REMARK    4  A    between atoms: C_8  and  O_49
REMARK    5  A    between atoms: C_9  and  O_48
REMARK    6  A    between atoms: C_10  and  O_50
REMARK    7  A    between atoms: C_11  and  O_51
REMARK    8  A    between atoms: C_12  and  O_53
REMARK    9  A    between atoms: C_13  and  O_24
REMARK   10  A    between atoms: C_15  and  O_39
REMARK   11  A    between atoms: C_25  and  C_61
REMARK   12  A    between atoms: C_26  and  C_62
REMARK   13  A    between atoms: C_27  and  C_63
REMARK   14  A    between atoms: C_29  and  C_30
REMARK   15  A    between atoms: N_31  and  C_46
REMARK   16  A    between atoms: N_32  and  C_45
REMARK   17  A    between atoms: N_37  and  C_47
REMARK   18  A    between atoms: O_39  and  C_40
REMARK   19  A    between atoms: C_45  and  C_59
REMARK   20  A    between atoms: C_45  and  C_61
REMARK   21  A    between atoms: C_46  and  C_58
REMARK   22  A    between atoms: C_46  and  C_63
REMARK   23  A    between atoms: C_47  and  C_60
REMARK   24  A    between atoms: C_47  and  C_62
REMARK   25  A    between atoms: O_48  and  C_70
REMARK   26  A    between atoms: O_49  and  C_69
REMARK   27  A    between atoms: O_50  and  C_68
REMARK   28  A    between atoms: O_51  and  C_71
REMARK   29  A    between atoms: O_53  and  C_72
REMARK   30  A    between atoms: C_58  and  O_93
REMARK   31  A    between atoms: C_59  and  O_94
REMARK   32  A    between atoms: C_60  and  O_92
REMARK   33  A    between atoms: O_92  and  C_112
REMARK   34  A    between atoms: O_93  and  C_111
REMARK   35  A    between atoms: O_94  and  C_110
REMARK                            x       y       z     vdW  Elec       q    Type
REMARK                         _______ _______ _______ _____ _____    ______ ____
ROOT
ATOM      1  C   UNL     1      -0.759  -0.360   0.000  0.00  0.00    +0.268 C 
ATOM      2  O   UNL     1      -1.816   1.036   0.000  0.00  0.00    -0.318 OA
ATOM      3  C   UNL     1      -3.802   1.036   0.000  0.00  0.00    +0.238 C 
ATOM      4  C   UNL     1      -4.889  -0.360   0.000  0.00  0.00    +0.247 C 
ATOM      5  C   UNL     1      -3.802  -1.641   0.000  0.00  0.00    +0.243 C 
ATOM      6  C   UNL     1      -1.816  -1.641   0.000  0.00  0.00    +0.217 C 
ENDROOT
BRANCH   3   7
ATOM      7  C   UNL     1      -3.817   1.784   0.000  0.00  0.00    +0.273 C 
ATOM      8  O   UNL     1      -3.126   2.266   0.000  0.00  0.00    -0.271 OA
ATOM      9  N   UNL     1      -4.730   2.216   0.000  0.00  0.00    -0.193 NA
BRANCH   9  10
ATOM     10  C   UNL     1      -4.730   2.993   0.000  0.00  0.00    +0.198 C 
BRANCH  10  11
ATOM     11  C   UNL     1      -5.443   3.396   0.000  0.00  0.00    +0.337 C 
ATOM     12  O   UNL     1      -6.134   3.022   0.000  0.00  0.00    -0.248 OA
BRANCH  11  13
ATOM     13  O   UNL     1      -5.443   4.144   0.000  0.00  0.00    -0.447 OA
BRANCH  13  14
ATOM     14  C   UNL     1      -6.306   4.626   0.000  0.00  0.00    +0.209 C 
ATOM     15  C   UNL     1      -7.148   4.123   0.000  0.00  0.00    +0.051 C 
ENDBRANCH  13  14
ENDBRANCH  11  13
ENDBRANCH  10  11
BRANCH  10  16
ATOM     16  C   UNL     1      -4.040   3.368   0.000  0.00  0.00    +0.061 C 
BRANCH  16  17
ATOM     17  C   UNL     1      -4.040   4.346   0.000  0.00  0.00    +0.001 A 
ATOM     18  C   UNL     1      -3.249   4.921   0.000  0.00  0.00    +0.015 A 
ATOM     19  C   UNL     1      -2.277   4.727   0.000  0.00  0.00    +0.001 A 
ATOM     20  C   UNL     1      -1.608   5.454   0.000  0.00  0.00    +0.000 A 
ATOM     21  C   UNL     1      -1.903   6.404   0.000  0.00  0.00    +0.002 A 
ATOM     22  C   UNL     1      -2.881   6.627   0.000  0.00  0.00    +0.019 A 
ATOM     23  C   UNL     1      -3.558   5.900   0.000  0.00  0.00    +0.081 A 
ATOM     24  N   UNL     1      -4.508   5.885   0.000  0.00  0.00    -0.244 NA
ATOM     25  C   UNL     1      -4.839   4.972   0.000  0.00  0.00    +0.095 A 
ENDBRANCH  16  17
ENDBRANCH  10  16
ENDBRANCH   9  10
ENDBRANCH   3   7
BRANCH   6  26
ATOM     26  O   UNL     1      -1.831  -3.504   0.000  0.00  0.00    -0.321 OA
BRANCH  26  27
ATOM     27  C   UNL     1      -1.831  -5.526   0.000  0.00  0.00    +0.281 C 
ATOM     28  O   UNL     1      -2.867  -4.123   0.000  0.00  0.00    -0.317 OA
ATOM     29  C   UNL     1      -4.853  -4.123   0.000  0.00  0.00    +0.239 C 
ATOM     30  C   UNL     1      -5.975  -5.526   0.000  0.00  0.00    +0.248 C 
ATOM     31  C   UNL     1      -4.853  -6.921   0.000  0.00  0.00    +0.256 C 
ATOM     32  C   UNL     1      -2.867  -6.921   0.000  0.00  0.00    +0.268 C 
BRANCH  29  33
ATOM     33  C   UNL     1      -4.853  -3.468   0.000  0.00  0.00    +0.273 C 
ATOM     34  O   UNL     1      -4.112  -2.950   0.000  0.00  0.00    -0.271 OA
ATOM     35  N   UNL     1      -5.817  -3.108   0.000  0.00  0.00    -0.193 NA
BRANCH  35  36
ATOM     36  C   UNL     1      -6.666  -3.108   0.000  0.00  0.00    +0.198 C 
BRANCH  36  37
ATOM     37  C   UNL     1      -7.134  -2.360   0.000  0.00  0.00    +0.337 C 
ATOM     38  O   UNL     1      -6.702  -1.655   0.000  0.00  0.00    -0.248 OA
BRANCH  37  39
ATOM     39  O   UNL     1      -7.947  -2.360   0.000  0.00  0.00    -0.447 OA
BRANCH  39  40
ATOM     40  C   UNL     1      -8.407  -1.446   0.000  0.00  0.00    +0.209 C 
ATOM     41  C   UNL     1      -9.393  -1.410   0.000  0.00  0.00    +0.051 C 
ENDBRANCH  39  40
ENDBRANCH  37  39
ENDBRANCH  36  37
BRANCH  36  42
ATOM     42  C   UNL     1      -7.134  -3.813   0.000  0.00  0.00    +0.061 C 
BRANCH  42  43
ATOM     43  C   UNL     1      -8.134  -3.813   0.000  0.00  0.00    +0.001 A 
ATOM     44  C   UNL     1      -8.774  -4.590   0.000  0.00  0.00    +0.015 A 
ATOM     45  C   UNL     1      -8.638  -5.576   0.000  0.00  0.00    +0.001 A 
ATOM     46  C   UNL     1      -9.415  -6.217   0.000  0.00  0.00    +0.000 A 
ATOM     47  C   UNL     1     -10.328  -5.850   0.000  0.00  0.00    +0.002 A 
ATOM     48  C   UNL     1     -10.501  -4.864   0.000  0.00  0.00    +0.019 A 
ATOM     49  C   UNL     1      -9.738  -4.231   0.000  0.00  0.00    +0.081 A 
ATOM     50  N   UNL     1      -9.760  -3.310   0.000  0.00  0.00    -0.244 NA
ATOM     51  C   UNL     1      -8.702  -2.986   0.000  0.00  0.00    +0.095 A 
ENDBRANCH  42  43
ENDBRANCH  36  42
ENDBRANCH  35  36
ENDBRANCH  29  33
BRANCH  32  52
ATOM     52  O   UNL     1      -2.867  -7.872   0.000  0.00  0.00    -0.443 OA
BRANCH  52  53
ATOM     53  C   UNL     1      -2.213  -8.231   0.000  0.00  0.00    +0.318 C 
ATOM     54  C   UNL     1      -2.213  -9.008   0.000  0.00  0.00    +0.121 C 
ATOM     55  O   UNL     1      -1.471  -7.922   0.000  0.00  0.00    -0.250 OA
ENDBRANCH  52  53
ENDBRANCH  32  52
BRANCH  30  56
ATOM     56  O   UNL     1      -5.975  -6.504   0.000  0.00  0.00    -0.445 OA
BRANCH  56  57
ATOM     57  C   UNL     1      -6.616  -6.936   0.000  0.00  0.00    +0.318 C 
ATOM     58  C   UNL     1      -6.616  -7.771   0.000  0.00  0.00    +0.121 C 
ATOM     59  O   UNL     1      -7.407  -6.663   0.000  0.00  0.00    -0.250 OA
ENDBRANCH  56  57
ENDBRANCH  30  56
BRANCH  31  60
ATOM     60  O   UNL     1      -4.853  -6.058   0.000  0.00  0.00    -0.444 OA
BRANCH  60  61
ATOM     61  C   UNL     1      -4.198  -5.590   0.000  0.00  0.00    +0.318 C 
ATOM     62  C   UNL     1      -4.198  -4.727   0.000  0.00  0.00    +0.121 C 
ATOM     63  O   UNL     1      -3.385  -5.900   0.000  0.00  0.00    -0.250 OA
ENDBRANCH  60  61
ENDBRANCH  31  60
ENDBRANCH  26  27
ENDBRANCH   6  26
BRANCH   1  64
ATOM     64  O   UNL     1      -0.759   1.576   0.000  0.00  0.00    -0.331 OA
BRANCH  64  86
ATOM     65  C   UNL     1       3.263   3.914   0.000  0.00  0.00    -0.042 C 
ATOM     66  C   UNL     1       4.076   4.504   0.000  0.00  0.00    +0.019 C 
ATOM     67  C   UNL     1       4.903   4.022   0.000  0.00  0.00    +0.003 C 
ATOM     68  C   UNL     1       5.803   3.468   0.000  0.00  0.00    +0.000 C 
ATOM     69  C   UNL     1       5.716   4.504   0.000  0.00  0.00    +0.001 C 
ATOM     70  C   UNL     1       5.716   5.418   0.000  0.00  0.00    +0.009 C 
ATOM     71  C   UNL     1       4.903   5.885   0.000  0.00  0.00    +0.071 C 
ATOM     72  C   UNL     1       4.076   6.404   0.000  0.00  0.00    +0.009 C 
ATOM     73  C   UNL     1       4.903   3.080   0.000  0.00  0.00    +0.001 C 
ATOM     74  C   UNL     1       4.076   2.612   0.000  0.00  0.00    +0.004 C 
ATOM     75  C   UNL     1       4.076   5.418   0.000  0.00  0.00    +0.013 C 
ATOM     76  C   UNL     1       2.608   4.331   0.000  0.00  0.00    +0.029 C 
ATOM     77  C   UNL     1       1.968   3.914   0.000  0.00  0.00    +0.172 C 
ATOM     78  O   UNL     1       1.155   4.382   0.000  0.00  0.00    -0.291 OA
ATOM     79  C   UNL     1       1.968   3.166   0.000  0.00  0.00    +0.062 C 
ATOM     80  C   UNL     1       2.608   2.799   0.000  0.00  0.00    +0.010 C 
ATOM     81  C   UNL     1       2.608   3.518   0.000  0.00  0.00    +0.001 C 
ATOM     82  C   UNL     1       2.608   1.972   0.000  0.00  0.00    +0.001 C 
ATOM     83  C   UNL     1       1.968   1.576   0.000  0.00  0.00    +0.000 C 
ATOM     84  C   UNL     1       1.313   1.972   0.000  0.00  0.00    +0.003 C 
ATOM     85  C   UNL     1       0.623   1.576   0.000  0.00  0.00    +0.025 C 
ATOM     86  C   UNL     1      -0.018   1.972   0.000  0.00  0.00    +0.118 C 
ATOM     87  C   UNL     1      -0.018   2.799   0.000  0.00  0.00    +0.030 C 
ATOM     88  C   UNL     1       0.623   3.166   0.000  0.00  0.00    +0.003 C 
ATOM     89  C   UNL     1       0.155   0.640   0.000  0.00  0.00    +0.002 C 
ATOM     90  C   UNL     1       1.191   0.799   0.000  0.00  0.00    +0.002 C 
ATOM     91  C   UNL     1       1.313   2.799   0.000  0.00  0.00    +0.007 C 
ATOM     92  C   UNL     1       1.313   3.569   0.000  0.00  0.00    +0.000 C 
ATOM     93  C   UNL     1       3.263   3.166   0.000  0.00  0.00    +0.016 C 
ATOM     94  C   UNL     1       3.263   2.281   0.000  0.00  0.00    +0.004 C 
BRANCH  71  95
ATOM     95  C   UNL     1       5.681   6.404   0.000  0.00  0.00    +0.241 C 
ATOM     96  O   UNL     1       5.681   7.404   0.000  0.00  0.00    -0.273 OA
ATOM     97  N   UNL     1       6.508   5.885   0.000  0.00  0.00    -0.195 NA
BRANCH  97  98
ATOM     98  C   UNL     1       7.271   6.303   0.000  0.00  0.00    +0.198 C 
BRANCH  98  99
ATOM     99  C   UNL     1       7.271   7.130   0.000  0.00  0.00    +0.337 C 
ATOM    100  O   UNL     1       6.544   7.526   0.000  0.00  0.00    -0.248 OA
BRANCH  99 101
ATOM    101  O   UNL     1       7.976   7.540   0.000  0.00  0.00    -0.447 OA
BRANCH 101 102
ATOM    102  C   UNL     1       7.976   8.526   0.000  0.00  0.00    +0.209 C 
ATOM    103  C   UNL     1       7.134   9.008   0.000  0.00  0.00    +0.051 C 
ENDBRANCH 101 102
ENDBRANCH  99 101
ENDBRANCH  98  99
BRANCH  98 104
ATOM    104  C   UNL     1       7.976   5.885   0.000  0.00  0.00    +0.061 C 
BRANCH 104 105
ATOM    105  C   UNL     1       8.012   4.885   0.000  0.00  0.00    +0.001 A 
ATOM    106  C   UNL     1       8.861   4.281   0.000  0.00  0.00    +0.015 A 
ATOM    107  C   UNL     1       9.839   4.468   0.000  0.00  0.00    +0.001 A 
ATOM    108  C   UNL     1      10.501   3.691   0.000  0.00  0.00    +0.000 A 
ATOM    109  C   UNL     1      10.170   2.784   0.000  0.00  0.00    +0.002 A 
ATOM    110  C   UNL     1       9.184   2.576   0.000  0.00  0.00    +0.019 A 
ATOM    111  C   UNL     1       8.530   3.338   0.000  0.00  0.00    +0.081 A 
ATOM    112  N   UNL     1       7.580   3.302   0.000  0.00  0.00    -0.244 NA
ATOM    113  C   UNL     1       7.220   4.281   0.000  0.00  0.00    +0.095 A 
ENDBRANCH 104 105
ENDBRANCH  98 104
ENDBRANCH  97  98
ENDBRANCH  71  95
ENDBRANCH  64  86
ENDBRANCH   1  64
BRANCH   4 114
ATOM    114  O   UNL     1      -4.889  -1.173   0.000  0.00  0.00    -0.445 OA
BRANCH 114 115
ATOM    115  C   UNL     1      -4.889  -1.741   0.000  0.00  0.00    +0.318 C 
ATOM    116  C   UNL     1      -4.407  -2.072   0.000  0.00  0.00    +0.121 C 
ATOM    117  O   UNL     1      -5.357  -2.086   0.000  0.00  0.00    -0.250 OA
ENDBRANCH 114 115
ENDBRANCH   4 114
BRANCH   5 118
ATOM    118  O   UNL     1      -3.802  -0.806   0.000  0.00  0.00    -0.446 OA
BRANCH 118 119
ATOM    119  C   UNL     1      -3.090  -0.410   0.000  0.00  0.00    +0.318 C 
ATOM    120  C   UNL     1      -3.076   0.453   0.000  0.00  0.00    +0.121 C 
ATOM    121  O   UNL     1      -2.349  -0.755   0.000  0.00  0.00    -0.250 OA
ENDBRANCH 118 119
ENDBRANCH   5 118
TORSDOF 35
ENDMDL
MODEL      176
REMARK  Name = methyl 2-[(10-{[4,5-bis(acetyloxy)-6-{[1-methoxy-4-(methylsulfanyl)-1-oxobutan-2-yl]carbamoyl}-3-{[3,4,5-tris(acetyloxy)-6-{[1-methoxy-4-(methylsulfanyl)-1-oxobutan-2-yl]carbamoyl}oxan-2-yl]oxy}oxan-2 -yl]oxy}-2,4a,6a,6b,9,9,12a-heptamethyl-13-oxo-1,2,3,4,4a,5,6,6a,6b,7,8,8a,9,10,11,12,12a,12b,13,14b-icosahydropicen-2-yl)formamido]-4-(methylsulfanyl)butanoate
REMARK  35 active torsions:
REMARK  status: ('A' for Active; 'I' for Inactive)
REMARK    1  A    between atoms: C_4  and  C_22
REMARK    2  A    between atoms: C_5  and  C_21
REMARK    3  A    between atoms: C_7  and  O_24
REMARK    4  A    between atoms: C_8  and  O_39
REMARK    5  A    between atoms: C_9  and  O_38
REMARK    6  A    between atoms: C_10  and  O_36
REMARK    7  A    between atoms: C_11  and  O_37
REMARK    8  A    between atoms: C_12  and  O_41
REMARK    9  A    between atoms: C_13  and  O_24
REMARK   10  A    between atoms: C_15  and  O_32
REMARK   11  A    between atoms: C_26  and  C_27
REMARK   12  A    between atoms: N_29  and  C_48
REMARK   13  A    between atoms: N_30  and  C_47
REMARK   14  A    between atoms: O_32  and  C_33
REMARK   15  A    between atoms: N_34  and  C_49
REMARK   16  A    between atoms: O_36  and  C_53
REMARK   17  A    between atoms: O_37  and  C_51
REMARK   18  A    between atoms: O_38  and  C_50
REMARK   19  A    between atoms: O_39  and  C_54
REMARK   20  A    between atoms: O_41  and  C_52
REMARK   21  A    between atoms: C_44  and  C_48
REMARK   22  A    between atoms: C_44  and  O_76
REMARK   23  A    between atoms: C_45  and  C_49
REMARK   24  A    between atoms: C_45  and  O_74
REMARK   25  A    between atoms: C_46  and  C_47
REMARK   26  A    between atoms: C_46  and  O_75
REMARK   27  A    between atoms: C_47  and  C_77
REMARK   28  A    between atoms: C_48  and  C_78
REMARK   29  A    between atoms: C_49  and  C_79
REMARK   30  A    between atoms: C_77  and  C_93
REMARK   31  A    between atoms: C_78  and  C_94
REMARK   32  A    between atoms: C_79  and  C_92
REMARK   33  A    between atoms: S_80  and  C_92
REMARK   34  A    between atoms: S_81  and  C_94
REMARK   35  A    between atoms: S_84  and  C_93
REMARK                            x       y       z     vdW  Elec       q    Type
REMARK                         _______ _______ _______ _____ _____    ______ ____
ROOT
ATOM      1  C   UNL     1      -0.710  -0.127   0.000  0.00  0.00    +0.268 C 
ATOM      2  O   UNL     1      -1.773   1.292   0.000  0.00  0.00    -0.318 OA
ATOM      3  C   UNL     1      -3.783   1.292   0.000  0.00  0.00    +0.238 C 
ATOM      4  C   UNL     1      -4.883  -0.127   0.000  0.00  0.00    +0.247 C 
ATOM      5  C   UNL     1      -3.783  -1.417   0.000  0.00  0.00    +0.243 C 
ATOM      6  C   UNL     1      -1.773  -1.417   0.000  0.00  0.00    +0.217 C 
ENDROOT
BRANCH   3   7
ATOM      7  C   UNL     1      -3.805   2.043   0.000  0.00  0.00    +0.273 C 
ATOM      8  O   UNL     1      -3.106   2.531   0.000  0.00  0.00    -0.271 OA
ATOM      9  N   UNL     1      -4.730   2.479   0.000  0.00  0.00    -0.194 NA
BRANCH   9  10
ATOM     10  C   UNL     1      -4.730   3.266   0.000  0.00  0.00    +0.194 C 
BRANCH  10  11
ATOM     11  C   UNL     1      -5.444   3.688   0.000  0.00  0.00    +0.337 C 
ATOM     12  O   UNL     1      -6.143   3.303   0.000  0.00  0.00    -0.248 OA
BRANCH  11  13
ATOM     13  O   UNL     1      -5.444   4.439   0.000  0.00  0.00    -0.443 OA
ATOM     14  C   UNL     1      -6.354   4.824   0.000  0.00  0.00    +0.256 C 
ENDBRANCH  11  13
ENDBRANCH  10  11
BRANCH  10  15
ATOM     15  C   UNL     1      -4.031   3.652   0.000  0.00  0.00    +0.045 C 
BRANCH  15  16
ATOM     16  C   UNL     1      -4.031   4.439   0.000  0.00  0.00    +0.060 C 
BRANCH  16  17
ATOM     17  S   UNL     1      -3.368   4.839   0.000  0.00  0.00    -0.139 S 
ATOM     18  C   UNL     1      -3.368   5.626   0.000  0.00  0.00    +0.069 C 
ENDBRANCH  16  17
ENDBRANCH  15  16
ENDBRANCH  10  15
ENDBRANCH   9  10
ENDBRANCH   3   7
BRANCH   1  19
ATOM     19  O   UNL     1      -0.710   1.831   0.000  0.00  0.00    -0.331 OA
BRANCH  19  41
ATOM     20  C   UNL     1       3.361   4.213   0.000  0.00  0.00    -0.042 C 
ATOM     21  C   UNL     1       4.184   4.803   0.000  0.00  0.00    +0.019 C 
ATOM     22  C   UNL     1       5.022   4.315   0.000  0.00  0.00    +0.003 C 
ATOM     23  C   UNL     1       5.931   3.754   0.000  0.00  0.00    +0.000 C 
ATOM     24  C   UNL     1       5.844   4.803   0.000  0.00  0.00    +0.001 C 
ATOM     25  C   UNL     1       5.844   5.728   0.000  0.00  0.00    +0.009 C 
ATOM     26  C   UNL     1       5.022   6.201   0.000  0.00  0.00    +0.071 C 
ATOM     27  C   UNL     1       4.184   6.725   0.000  0.00  0.00    +0.009 C 
ATOM     28  C   UNL     1       5.022   3.353   0.000  0.00  0.00    +0.001 C 
ATOM     29  C   UNL     1       4.184   2.880   0.000  0.00  0.00    +0.004 C 
ATOM     30  C   UNL     1       4.184   5.728   0.000  0.00  0.00    +0.013 C 
ATOM     31  C   UNL     1       2.698   4.628   0.000  0.00  0.00    +0.029 C 
ATOM     32  C   UNL     1       2.050   4.213   0.000  0.00  0.00    +0.172 C 
ATOM     33  O   UNL     1       1.234   4.679   0.000  0.00  0.00    -0.291 OA
ATOM     34  C   UNL     1       2.050   3.441   0.000  0.00  0.00    +0.062 C 
ATOM     35  C   UNL     1       2.698   3.077   0.000  0.00  0.00    +0.010 C 
ATOM     36  C   UNL     1       2.698   3.805   0.000  0.00  0.00    +0.001 C 
ATOM     37  C   UNL     1       2.698   2.232   0.000  0.00  0.00    +0.001 C 
ATOM     38  C   UNL     1       2.050   1.831   0.000  0.00  0.00    +0.000 C 
ATOM     39  C   UNL     1       1.387   2.232   0.000  0.00  0.00    +0.003 C 
ATOM     40  C   UNL     1       0.688   1.831   0.000  0.00  0.00    +0.025 C 
ATOM     41  C   UNL     1       0.040   2.232   0.000  0.00  0.00    +0.118 C 
ATOM     42  C   UNL     1       0.040   3.077   0.000  0.00  0.00    +0.030 C 
ATOM     43  C   UNL     1       0.688   3.441   0.000  0.00  0.00    +0.003 C 
ATOM     44  C   UNL     1       1.263   1.045   0.000  0.00  0.00    +0.002 C 
ATOM     45  C   UNL     1       0.215   0.892   0.000  0.00  0.00    +0.002 C 
ATOM     46  C   UNL     1       1.387   3.077   0.000  0.00  0.00    +0.007 C 
ATOM     47  C   UNL     1       1.387   3.863   0.000  0.00  0.00    +0.000 C 
ATOM     48  C   UNL     1       3.361   3.441   0.000  0.00  0.00    +0.016 C 
ATOM     49  C   UNL     1       3.361   2.552   0.000  0.00  0.00    +0.004 C 
BRANCH  26  50
ATOM     50  C   UNL     1       5.808   6.725   0.000  0.00  0.00    +0.241 C 
ATOM     51  O   UNL     1       5.808   7.737   0.000  0.00  0.00    -0.273 OA
ATOM     52  N   UNL     1       6.653   6.201   0.000  0.00  0.00    -0.196 NA
BRANCH  52  53
ATOM     53  C   UNL     1       7.417   6.623   0.000  0.00  0.00    +0.194 C 
BRANCH  53  54
ATOM     54  C   UNL     1       7.417   7.461   0.000  0.00  0.00    +0.337 C 
ATOM     55  O   UNL     1       6.682   7.861   0.000  0.00  0.00    -0.248 OA
BRANCH  54  56
ATOM     56  O   UNL     1       8.138   7.883   0.000  0.00  0.00    -0.443 OA
ATOM     57  C   UNL     1       8.138   8.881   0.000  0.00  0.00    +0.256 C 
ENDBRANCH  54  56
ENDBRANCH  53  54
BRANCH  53  58
ATOM     58  C   UNL     1       8.138   6.201   0.000  0.00  0.00    +0.045 C 
BRANCH  58  59
ATOM     59  C   UNL     1       8.837   6.623   0.000  0.00  0.00    +0.060 C 
BRANCH  59  60
ATOM     60  S   UNL     1       9.587   6.237   0.000  0.00  0.00    -0.139 S 
ATOM     61  C   UNL     1       9.587   5.225   0.000  0.00  0.00    +0.069 C 
ENDBRANCH  59  60
ENDBRANCH  58  59
ENDBRANCH  53  58
ENDBRANCH  52  53
ENDBRANCH  26  50
ENDBRANCH  19  41
ENDBRANCH   1  19
BRANCH   6  62
ATOM     62  O   UNL     1      -1.795  -3.303   0.000  0.00  0.00    -0.321 OA
BRANCH  62  63
ATOM     63  C   UNL     1      -1.795  -5.349   0.000  0.00  0.00    +0.281 C 
ATOM     64  O   UNL     1      -2.844  -3.936   0.000  0.00  0.00    -0.317 OA
ATOM     65  C   UNL     1      -4.854  -3.936   0.000  0.00  0.00    +0.239 C 
ATOM     66  C   UNL     1      -5.989  -5.349   0.000  0.00  0.00    +0.248 C 
ATOM     67  C   UNL     1      -4.854  -6.769   0.000  0.00  0.00    +0.256 C 
ATOM     68  C   UNL     1      -2.844  -6.769   0.000  0.00  0.00    +0.268 C 
BRANCH  65  69
ATOM     69  C   UNL     1      -4.854  -3.273   0.000  0.00  0.00    +0.273 C 
ATOM     70  O   UNL     1      -4.096  -2.749   0.000  0.00  0.00    -0.271 OA
ATOM     71  N   UNL     1      -5.830  -2.902   0.000  0.00  0.00    -0.194 NA
BRANCH  71  72
ATOM     72  C   UNL     1      -6.689  -2.902   0.000  0.00  0.00    +0.194 C 
BRANCH  72  73
ATOM     73  C   UNL     1      -7.155  -2.152   0.000  0.00  0.00    +0.337 C 
ATOM     74  O   UNL     1      -6.718  -1.438   0.000  0.00  0.00    -0.248 OA
BRANCH  73  75
ATOM     75  O   UNL     1      -7.978  -2.152   0.000  0.00  0.00    -0.443 OA
ATOM     76  C   UNL     1      -8.400  -1.438   0.000  0.00  0.00    +0.256 C 
ENDBRANCH  73  75
ENDBRANCH  72  73
BRANCH  72  77
ATOM     77  C   UNL     1      -7.155  -3.623   0.000  0.00  0.00    +0.045 C 
BRANCH  77  78
ATOM     78  C   UNL     1      -8.138  -3.623   0.000  0.00  0.00    +0.060 C 
BRANCH  78  79
ATOM     79  S   UNL     1      -8.626  -4.460   0.000  0.00  0.00    -0.139 S 
ATOM     80  C   UNL     1      -9.587  -4.460   0.000  0.00  0.00    +0.069 C 
ENDBRANCH  78  79
ENDBRANCH  77  78
ENDBRANCH  72  77
ENDBRANCH  71  72
ENDBRANCH  65  69
BRANCH  68  81
ATOM     81  O   UNL     1      -2.844  -7.730   0.000  0.00  0.00    -0.443 OA
BRANCH  81  82
ATOM     82  C   UNL     1      -2.174  -8.094   0.000  0.00  0.00    +0.318 C 
ATOM     83  C   UNL     1      -2.174  -8.881   0.000  0.00  0.00    +0.121 C 
ATOM     84  O   UNL     1      -1.424  -7.781   0.000  0.00  0.00    -0.250 OA
ENDBRANCH  81  82
ENDBRANCH  68  81
BRANCH  66  85
ATOM     85  O   UNL     1      -5.989  -6.347   0.000  0.00  0.00    -0.445 OA
BRANCH  85  86
ATOM     86  C   UNL     1      -6.630  -6.783   0.000  0.00  0.00    +0.318 C 
ATOM     87  C   UNL     1      -6.630  -7.621   0.000  0.00  0.00    +0.121 C 
ATOM     88  O   UNL     1      -7.439  -6.507   0.000  0.00  0.00    -0.250 OA
ENDBRANCH  85  86
ENDBRANCH  66  85
BRANCH  67  89
ATOM     89  O   UNL     1      -4.854  -5.895   0.000  0.00  0.00    -0.444 OA
BRANCH  89  90
ATOM     90  C   UNL     1      -4.184  -5.422   0.000  0.00  0.00    +0.318 C 
ATOM     91  C   UNL     1      -4.184  -4.548   0.000  0.00  0.00    +0.121 C 
ATOM     92  O   UNL     1      -3.368  -5.735   0.000  0.00  0.00    -0.250 OA
ENDBRANCH  89  90
ENDBRANCH  67  89
ENDBRANCH  62  63
ENDBRANCH   6  62
BRANCH   4  93
ATOM     93  O   UNL     1      -4.883  -0.943   0.000  0.00  0.00    -0.445 OA
BRANCH  93  94
ATOM     94  C   UNL     1      -4.883  -1.526   0.000  0.00  0.00    +0.318 C 
ATOM     95  C   UNL     1      -4.395  -1.853   0.000  0.00  0.00    +0.121 C 
ATOM     96  O   UNL     1      -5.356  -1.875   0.000  0.00  0.00    -0.250 OA
ENDBRANCH  93  94
ENDBRANCH   4  93
BRANCH   5  97
ATOM     97  O   UNL     1      -3.783  -0.579   0.000  0.00  0.00    -0.446 OA
BRANCH  97  98
ATOM     98  C   UNL     1      -3.069  -0.178   0.000  0.00  0.00    +0.318 C 
ATOM     99  C   UNL     1      -3.048   0.695   0.000  0.00  0.00    +0.121 C 
ATOM    100  O   UNL     1      -2.319  -0.528   0.000  0.00  0.00    -0.250 OA
ENDBRANCH  97  98
ENDBRANCH   5  97
TORSDOF 35
ENDMDL
MODEL      177
REMARK  Name = ethyl 2-[(10-{[4,5-bis(acetyloxy)-6-[(1-ethoxy-3-methyl-1-oxobutan-2-yl)carbamoyl]-3-{[3,4,5-tris(acetyloxy)-6-[(1-ethoxy-3-methyl-1-oxobutan-2-yl)carbamoyl]oxan-2-yl]oxy}oxan-2-yl]oxy}-2,4a,6a,6b,9,9 ,12a-heptamethyl-13-oxo-1,2,3,4,4a,5,6,6a,6b,7,8,8a,9,10,11,12,12a,12b,13,14b-icosahydropicen-2-yl)formamido]-3-methylbutanoate
REMARK  32 active torsions:
REMARK  status: ('A' for Active; 'I' for Inactive)
REMARK    1  A    between atoms: C_4  and  C_21
REMARK    2  A    between atoms: C_5  and  C_20
REMARK    3  A    between atoms: C_7  and  O_24
REMARK    4  A    between atoms: C_8  and  O_39
REMARK    5  A    between atoms: C_9  and  O_42
REMARK    6  A    between atoms: C_10  and  O_40
REMARK    7  A    between atoms: C_11  and  O_41
REMARK    8  A    between atoms: C_12  and  O_44
REMARK    9  A    between atoms: C_13  and  O_24
REMARK   10  A    between atoms: C_15  and  O_33
REMARK   11  A    between atoms: N_25  and  C_36
REMARK   12  A    between atoms: N_26  and  C_35
REMARK   13  A    between atoms: N_28  and  C_37
REMARK   14  A    between atoms: C_29  and  C_30
REMARK   15  A    between atoms: O_33  and  C_34
REMARK   16  A    between atoms: C_35  and  C_48
REMARK   17  A    between atoms: C_35  and  C_73
REMARK   18  A    between atoms: C_36  and  C_46
REMARK   19  A    between atoms: C_36  and  C_74
REMARK   20  A    between atoms: C_37  and  C_47
REMARK   21  A    between atoms: C_37  and  C_75
REMARK   22  A    between atoms: O_39  and  C_54
REMARK   23  A    between atoms: O_40  and  C_53
REMARK   24  A    between atoms: O_41  and  C_51
REMARK   25  A    between atoms: O_42  and  C_50
REMARK   26  A    between atoms: O_44  and  C_52
REMARK   27  A    between atoms: C_46  and  O_79
REMARK   28  A    between atoms: C_47  and  O_77
REMARK   29  A    between atoms: C_48  and  O_78
REMARK   30  A    between atoms: O_77  and  C_95
REMARK   31  A    between atoms: O_78  and  C_96
REMARK   32  A    between atoms: O_79  and  C_97
REMARK                            x       y       z     vdW  Elec       q    Type
REMARK                         _______ _______ _______ _____ _____    ______ ____
ROOT
ATOM      1  C   UNL     1      -0.424  -0.366   0.000  0.00  0.00    +0.268 C 
ATOM      2  O   UNL     1      -1.489   1.047   0.000  0.00  0.00    -0.318 OA
ATOM      3  C   UNL     1      -3.489   1.047   0.000  0.00  0.00    +0.238 C 
ATOM      4  C   UNL     1      -4.583  -0.366   0.000  0.00  0.00    +0.247 C 
ATOM      5  C   UNL     1      -3.489  -1.649   0.000  0.00  0.00    +0.243 C 
ATOM      6  C   UNL     1      -1.489  -1.649   0.000  0.00  0.00    +0.217 C 
ENDROOT
BRANCH   3   7
ATOM      7  C   UNL     1      -3.503   1.793   0.000  0.00  0.00    +0.273 C 
ATOM      8  O   UNL     1      -2.808   2.279   0.000  0.00  0.00    -0.271 OA
ATOM      9  N   UNL     1      -4.423   2.228   0.000  0.00  0.00    -0.194 NA
BRANCH   9  10
ATOM     10  C   UNL     1      -4.423   3.010   0.000  0.00  0.00    +0.193 C 
BRANCH  10  11
ATOM     11  C   UNL     1      -3.728   3.394   0.000  0.00  0.00    +0.031 C 
ATOM     12  C   UNL     1      -2.895   2.909   0.000  0.00  0.00    +0.002 C 
ATOM     13  C   UNL     1      -3.728   4.177   0.000  0.00  0.00    +0.002 C 
ENDBRANCH  10  11
BRANCH  10  14
ATOM     14  C   UNL     1      -5.141   3.431   0.000  0.00  0.00    +0.337 C 
ATOM     15  O   UNL     1      -5.836   3.047   0.000  0.00  0.00    -0.248 OA
BRANCH  14  16
ATOM     16  O   UNL     1      -5.141   4.177   0.000  0.00  0.00    -0.447 OA
BRANCH  16  17
ATOM     17  C   UNL     1      -6.039   4.561   0.000  0.00  0.00    +0.209 C 
ATOM     18  C   UNL     1      -6.024   5.532   0.000  0.00  0.00    +0.051 C 
ENDBRANCH  16  17
ENDBRANCH  14  16
ENDBRANCH  10  14
ENDBRANCH   9  10
ENDBRANCH   3   7
BRANCH   6  19
ATOM     19  O   UNL     1      -1.503  -3.525   0.000  0.00  0.00    -0.321 OA
BRANCH  19  20
ATOM     20  C   UNL     1      -1.503  -5.561   0.000  0.00  0.00    +0.281 C 
ATOM     21  O   UNL     1      -2.547  -4.155   0.000  0.00  0.00    -0.317 OA
ATOM     22  C   UNL     1      -4.547  -4.155   0.000  0.00  0.00    +0.239 C 
ATOM     23  C   UNL     1      -5.677  -5.561   0.000  0.00  0.00    +0.248 C 
ATOM     24  C   UNL     1      -4.547  -6.974   0.000  0.00  0.00    +0.256 C 
ATOM     25  C   UNL     1      -2.547  -6.974   0.000  0.00  0.00    +0.268 C 
BRANCH  22  26
ATOM     26  C   UNL     1      -4.547  -3.496   0.000  0.00  0.00    +0.273 C 
ATOM     27  O   UNL     1      -3.800  -2.974   0.000  0.00  0.00    -0.271 OA
ATOM     28  N   UNL     1      -5.517  -3.126   0.000  0.00  0.00    -0.194 NA
BRANCH  28  29
ATOM     29  C   UNL     1      -6.372  -3.126   0.000  0.00  0.00    +0.193 C 
BRANCH  29  30
ATOM     30  C   UNL     1      -6.843  -3.844   0.000  0.00  0.00    +0.031 C 
ATOM     31  C   UNL     1      -6.285  -4.627   0.000  0.00  0.00    +0.002 C 
ATOM     32  C   UNL     1      -7.814  -3.844   0.000  0.00  0.00    +0.002 C 
ENDBRANCH  29  30
BRANCH  29  33
ATOM     33  C   UNL     1      -6.843  -2.380   0.000  0.00  0.00    +0.337 C 
ATOM     34  O   UNL     1      -6.409  -1.670   0.000  0.00  0.00    -0.248 OA
BRANCH  33  35
ATOM     35  O   UNL     1      -7.662  -2.380   0.000  0.00  0.00    -0.447 OA
BRANCH  35  36
ATOM     36  C   UNL     1      -8.075  -1.670   0.000  0.00  0.00    +0.209 C 
ATOM     37  C   UNL     1      -9.068  -1.670   0.000  0.00  0.00    +0.051 C 
ENDBRANCH  35  36
ENDBRANCH  33  35
ENDBRANCH  29  33
ENDBRANCH  28  29
ENDBRANCH  22  26
BRANCH  24  38
ATOM     38  O   UNL     1      -4.547  -6.104   0.000  0.00  0.00    -0.444 OA
BRANCH  38  39
ATOM     39  C   UNL     1      -3.887  -5.634   0.000  0.00  0.00    +0.318 C 
ATOM     40  C   UNL     1      -3.887  -4.764   0.000  0.00  0.00    +0.121 C 
ATOM     41  O   UNL     1      -3.068  -5.945   0.000  0.00  0.00    -0.250 OA
ENDBRANCH  38  39
ENDBRANCH  24  38
BRANCH  23  42
ATOM     42  O   UNL     1      -5.677  -6.554   0.000  0.00  0.00    -0.445 OA
BRANCH  42  43
ATOM     43  C   UNL     1      -6.322  -6.988   0.000  0.00  0.00    +0.318 C 
ATOM     44  C   UNL     1      -6.322  -7.822   0.000  0.00  0.00    +0.121 C 
ATOM     45  O   UNL     1      -7.119  -6.713   0.000  0.00  0.00    -0.250 OA
ENDBRANCH  42  43
ENDBRANCH  23  42
BRANCH  25  46
ATOM     46  O   UNL     1      -2.547  -7.931   0.000  0.00  0.00    -0.443 OA
BRANCH  46  47
ATOM     47  C   UNL     1      -1.888  -8.292   0.000  0.00  0.00    +0.318 C 
ATOM     48  C   UNL     1      -1.888  -9.075   0.000  0.00  0.00    +0.121 C 
ATOM     49  O   UNL     1      -1.141  -7.981   0.000  0.00  0.00    -0.250 OA
ENDBRANCH  46  47
ENDBRANCH  25  46
ENDBRANCH  19  20
ENDBRANCH   6  19
BRANCH   1  50
ATOM     50  O   UNL     1      -0.424   1.583   0.000  0.00  0.00    -0.331 OA
BRANCH  50  72
ATOM     51  C   UNL     1       3.627   3.953   0.000  0.00  0.00    -0.042 C 
ATOM     52  C   UNL     1       4.445   4.540   0.000  0.00  0.00    +0.019 C 
ATOM     53  C   UNL     1       5.279   4.054   0.000  0.00  0.00    +0.003 C 
ATOM     54  C   UNL     1       6.184   3.496   0.000  0.00  0.00    +0.000 C 
ATOM     55  C   UNL     1       6.098   4.540   0.000  0.00  0.00    +0.001 C 
ATOM     56  C   UNL     1       6.098   5.460   0.000  0.00  0.00    +0.009 C 
ATOM     57  C   UNL     1       5.279   5.931   0.000  0.00  0.00    +0.071 C 
ATOM     58  C   UNL     1       4.445   6.452   0.000  0.00  0.00    +0.009 C 
ATOM     59  C   UNL     1       5.279   3.098   0.000  0.00  0.00    +0.001 C 
ATOM     60  C   UNL     1       4.445   2.627   0.000  0.00  0.00    +0.004 C 
ATOM     61  C   UNL     1       4.445   5.460   0.000  0.00  0.00    +0.013 C 
ATOM     62  C   UNL     1       2.967   4.365   0.000  0.00  0.00    +0.029 C 
ATOM     63  C   UNL     1       2.322   3.953   0.000  0.00  0.00    +0.172 C 
ATOM     64  O   UNL     1       1.504   4.416   0.000  0.00  0.00    -0.291 OA
ATOM     65  C   UNL     1       2.322   3.184   0.000  0.00  0.00    +0.062 C 
ATOM     66  C   UNL     1       2.967   2.822   0.000  0.00  0.00    +0.010 C 
ATOM     67  C   UNL     1       2.967   3.547   0.000  0.00  0.00    +0.001 C 
ATOM     68  C   UNL     1       2.967   1.982   0.000  0.00  0.00    +0.001 C 
ATOM     69  C   UNL     1       2.322   1.583   0.000  0.00  0.00    +0.000 C 
ATOM     70  C   UNL     1       1.663   1.982   0.000  0.00  0.00    +0.003 C 
ATOM     71  C   UNL     1       0.967   1.583   0.000  0.00  0.00    +0.025 C 
ATOM     72  C   UNL     1       0.323   1.982   0.000  0.00  0.00    +0.118 C 
ATOM     73  C   UNL     1       0.323   2.822   0.000  0.00  0.00    +0.030 C 
ATOM     74  C   UNL     1       0.967   3.184   0.000  0.00  0.00    +0.003 C 
ATOM     75  C   UNL     1       1.540   0.800   0.000  0.00  0.00    +0.002 C 
ATOM     76  C   UNL     1       0.496   0.648   0.000  0.00  0.00    +0.002 C 
ATOM     77  C   UNL     1       1.663   2.822   0.000  0.00  0.00    +0.007 C 
ATOM     78  C   UNL     1       1.663   3.604   0.000  0.00  0.00    +0.000 C 
ATOM     79  C   UNL     1       3.627   3.184   0.000  0.00  0.00    +0.016 C 
ATOM     80  C   UNL     1       3.627   2.300   0.000  0.00  0.00    +0.004 C 
BRANCH  57  81
ATOM     81  C   UNL     1       6.061   6.452   0.000  0.00  0.00    +0.241 C 
ATOM     82  O   UNL     1       6.061   7.466   0.000  0.00  0.00    -0.273 OA
ATOM     83  N   UNL     1       6.894   5.931   0.000  0.00  0.00    -0.196 NA
BRANCH  83  84
ATOM     84  C   UNL     1       7.662   6.351   0.000  0.00  0.00    +0.193 C 
BRANCH  84  85
ATOM     85  C   UNL     1       8.372   5.931   0.000  0.00  0.00    +0.031 C 
ATOM     86  C   UNL     1       8.394   4.938   0.000  0.00  0.00    +0.002 C 
ATOM     87  C   UNL     1       9.068   6.351   0.000  0.00  0.00    +0.002 C 
ENDBRANCH  84  85
BRANCH  84  88
ATOM     88  C   UNL     1       7.662   7.184   0.000  0.00  0.00    +0.337 C 
ATOM     89  O   UNL     1       6.931   7.582   0.000  0.00  0.00    -0.248 OA
BRANCH  88  90
ATOM     90  O   UNL     1       8.372   7.604   0.000  0.00  0.00    -0.447 OA
BRANCH  90  91
ATOM     91  C   UNL     1       8.372   8.597   0.000  0.00  0.00    +0.209 C 
ATOM     92  C   UNL     1       7.525   9.075   0.000  0.00  0.00    +0.051 C 
ENDBRANCH  90  91
ENDBRANCH  88  90
ENDBRANCH  84  88
ENDBRANCH  83  84
ENDBRANCH  57  81
ENDBRANCH  50  72
ENDBRANCH   1  50
BRANCH   4  93
ATOM     93  O   UNL     1      -4.583  -1.177   0.000  0.00  0.00    -0.445 OA
BRANCH  93  94
ATOM     94  C   UNL     1      -4.583  -1.757   0.000  0.00  0.00    +0.318 C 
ATOM     95  C   UNL     1      -4.097  -2.083   0.000  0.00  0.00    +0.121 C 
ATOM     96  O   UNL     1      -5.054  -2.105   0.000  0.00  0.00    -0.250 OA
ENDBRANCH  93  94
ENDBRANCH   4  93
BRANCH   5  97
ATOM     97  O   UNL     1      -3.489  -0.815   0.000  0.00  0.00    -0.446 OA
BRANCH  97  98
ATOM     98  C   UNL     1      -2.771  -0.417   0.000  0.00  0.00    +0.318 C 
ATOM     99  C   UNL     1      -2.757   0.453   0.000  0.00  0.00    +0.121 C 
ATOM    100  O   UNL     1      -2.025  -0.765   0.000  0.00  0.00    -0.250 OA
ENDBRANCH  97  98
ENDBRANCH   5  97
TORSDOF 32
ENDMDL
MODEL      178
REMARK  Name = ethyl 2-[(10-{[4,5-bis(acetyloxy)-6-[(1-ethoxy-4-methyl-1-oxopentan-2-yl)carbamoyl]-3-{[3,4,5-tris(acetyloxy)-6-[(1-ethoxy-4-methyl-1-oxopentan-2-yl)carbamoyl]oxan-2-yl]oxy}oxan-2-yl]oxy}-2,4a,6a,6b,9 ,9,12a-heptamethyl-13-oxo-1,2,3,4,4a,5,6,6a,6b,7,8,8a,9,10,11,12,12a,12b,13,14b-icosahydropicen-2-yl)formamido]-4-methylpentanoate
REMARK  35 active torsions:
REMARK  status: ('A' for Active; 'I' for Inactive)
REMARK    1  A    between atoms: C_4  and  C_21
REMARK    2  A    between atoms: C_5  and  C_22
REMARK    3  A    between atoms: C_7  and  O_24
REMARK    4  A    between atoms: C_8  and  O_39
REMARK    5  A    between atoms: C_9  and  O_42
REMARK    6  A    between atoms: C_10  and  O_40
REMARK    7  A    between atoms: C_11  and  O_41
REMARK    8  A    between atoms: C_12  and  O_44
REMARK    9  A    between atoms: C_13  and  O_24
REMARK   10  A    between atoms: C_15  and  O_33
REMARK   11  A    between atoms: C_26  and  C_27
REMARK   12  A    between atoms: N_28  and  C_37
REMARK   13  A    between atoms: N_29  and  C_36
REMARK   14  A    between atoms: N_31  and  C_38
REMARK   15  A    between atoms: O_33  and  C_34
REMARK   16  A    between atoms: C_36  and  C_46
REMARK   17  A    between atoms: C_36  and  C_67
REMARK   18  A    between atoms: C_37  and  C_48
REMARK   19  A    between atoms: C_37  and  C_66
REMARK   20  A    between atoms: C_38  and  C_47
REMARK   21  A    between atoms: C_38  and  C_68
REMARK   22  A    between atoms: O_39  and  C_54
REMARK   23  A    between atoms: O_40  and  C_53
REMARK   24  A    between atoms: O_41  and  C_51
REMARK   25  A    between atoms: O_42  and  C_50
REMARK   26  A    between atoms: O_44  and  C_52
REMARK   27  A    between atoms: C_46  and  O_79
REMARK   28  A    between atoms: C_47  and  O_77
REMARK   29  A    between atoms: C_48  and  O_78
REMARK   30  A    between atoms: C_66  and  C_84
REMARK   31  A    between atoms: C_67  and  C_85
REMARK   32  A    between atoms: C_68  and  C_86
REMARK   33  A    between atoms: O_77  and  C_92
REMARK   34  A    between atoms: O_78  and  C_93
REMARK   35  A    between atoms: O_79  and  C_94
REMARK                            x       y       z     vdW  Elec       q    Type
REMARK                         _______ _______ _______ _____ _____    ______ ____
ROOT
ATOM      1  C   UNL     1      -0.516  -0.362   0.000  0.00  0.00    +0.268 C 
ATOM      2  O   UNL     1      -1.570   1.036   0.000  0.00  0.00    -0.318 OA
ATOM      3  C   UNL     1      -3.550   1.036   0.000  0.00  0.00    +0.238 C 
ATOM      4  C   UNL     1      -4.633  -0.362   0.000  0.00  0.00    +0.247 C 
ATOM      5  C   UNL     1      -3.550  -1.632   0.000  0.00  0.00    +0.243 C 
ATOM      6  C   UNL     1      -1.570  -1.632   0.000  0.00  0.00    +0.217 C 
ENDROOT
BRANCH   3   7
ATOM      7  C   UNL     1      -3.564   1.775   0.000  0.00  0.00    +0.273 C 
ATOM      8  O   UNL     1      -2.876   2.255   0.000  0.00  0.00    -0.271 OA
ATOM      9  N   UNL     1      -4.475   2.205   0.000  0.00  0.00    -0.194 NA
BRANCH   9  10
ATOM     10  C   UNL     1      -4.475   2.980   0.000  0.00  0.00    +0.193 C 
BRANCH  10  11
ATOM     11  C   UNL     1      -5.185   3.396   0.000  0.00  0.00    +0.337 C 
ATOM     12  O   UNL     1      -5.874   3.016   0.000  0.00  0.00    -0.248 OA
BRANCH  11  13
ATOM     13  O   UNL     1      -5.185   4.135   0.000  0.00  0.00    -0.447 OA
BRANCH  13  14
ATOM     14  C   UNL     1      -6.075   4.515   0.000  0.00  0.00    +0.209 C 
ATOM     15  C   UNL     1      -6.060   5.476   0.000  0.00  0.00    +0.051 C 
ENDBRANCH  13  14
ENDBRANCH  11  13
ENDBRANCH  10  11
BRANCH  10  16
ATOM     16  C   UNL     1      -3.564   3.568   0.000  0.00  0.00    +0.033 C 
BRANCH  16  17
ATOM     17  C   UNL     1      -3.564   4.701   0.000  0.00  0.00    +0.002 C 
ATOM     18  C   UNL     1      -2.481   5.131   0.000  0.00  0.00    +0.000 C 
ATOM     19  C   UNL     1      -4.440   5.268   0.000  0.00  0.00    +0.000 C 
ENDBRANCH  16  17
ENDBRANCH  10  16
ENDBRANCH   9  10
ENDBRANCH   3   7
BRANCH   1  20
ATOM     20  O   UNL     1      -0.516   1.567   0.000  0.00  0.00    -0.331 OA
BRANCH  20  42
ATOM     21  C   UNL     1       3.493   3.912   0.000  0.00  0.00    -0.042 C 
ATOM     22  C   UNL     1       4.303   4.493   0.000  0.00  0.00    +0.019 C 
ATOM     23  C   UNL     1       5.128   4.013   0.000  0.00  0.00    +0.003 C 
ATOM     24  C   UNL     1       6.024   3.460   0.000  0.00  0.00    +0.000 C 
ATOM     25  C   UNL     1       5.939   4.493   0.000  0.00  0.00    +0.001 C 
ATOM     26  C   UNL     1       5.939   5.404   0.000  0.00  0.00    +0.009 C 
ATOM     27  C   UNL     1       5.128   5.870   0.000  0.00  0.00    +0.071 C 
ATOM     28  C   UNL     1       4.303   6.386   0.000  0.00  0.00    +0.009 C 
ATOM     29  C   UNL     1       5.128   3.066   0.000  0.00  0.00    +0.001 C 
ATOM     30  C   UNL     1       4.303   2.600   0.000  0.00  0.00    +0.004 C 
ATOM     31  C   UNL     1       4.303   5.404   0.000  0.00  0.00    +0.013 C 
ATOM     32  C   UNL     1       2.840   4.321   0.000  0.00  0.00    +0.029 C 
ATOM     33  C   UNL     1       2.202   3.912   0.000  0.00  0.00    +0.172 C 
ATOM     34  O   UNL     1       1.391   4.371   0.000  0.00  0.00    -0.291 OA
ATOM     35  C   UNL     1       2.202   3.152   0.000  0.00  0.00    +0.062 C 
ATOM     36  C   UNL     1       2.840   2.793   0.000  0.00  0.00    +0.010 C 
ATOM     37  C   UNL     1       2.840   3.510   0.000  0.00  0.00    +0.001 C 
ATOM     38  C   UNL     1       2.840   1.962   0.000  0.00  0.00    +0.001 C 
ATOM     39  C   UNL     1       2.202   1.567   0.000  0.00  0.00    +0.000 C 
ATOM     40  C   UNL     1       1.549   1.962   0.000  0.00  0.00    +0.003 C 
ATOM     41  C   UNL     1       0.861   1.567   0.000  0.00  0.00    +0.025 C 
ATOM     42  C   UNL     1       0.222   1.962   0.000  0.00  0.00    +0.118 C 
ATOM     43  C   UNL     1       0.222   2.793   0.000  0.00  0.00    +0.030 C 
ATOM     44  C   UNL     1       0.861   3.152   0.000  0.00  0.00    +0.003 C 
ATOM     45  C   UNL     1       1.427   0.792   0.000  0.00  0.00    +0.002 C 
ATOM     46  C   UNL     1       0.394   0.642   0.000  0.00  0.00    +0.002 C 
ATOM     47  C   UNL     1       1.549   2.793   0.000  0.00  0.00    +0.007 C 
ATOM     48  C   UNL     1       1.549   3.568   0.000  0.00  0.00    +0.000 C 
ATOM     49  C   UNL     1       3.493   3.152   0.000  0.00  0.00    +0.016 C 
ATOM     50  C   UNL     1       3.493   2.277   0.000  0.00  0.00    +0.004 C 
BRANCH  27  51
ATOM     51  C   UNL     1       5.903   6.386   0.000  0.00  0.00    +0.241 C 
ATOM     52  O   UNL     1       5.903   7.391   0.000  0.00  0.00    -0.273 OA
ATOM     53  N   UNL     1       6.728   5.870   0.000  0.00  0.00    -0.196 NA
BRANCH  53  54
ATOM     54  C   UNL     1       7.488   6.286   0.000  0.00  0.00    +0.193 C 
BRANCH  54  55
ATOM     55  C   UNL     1       7.488   7.111   0.000  0.00  0.00    +0.337 C 
ATOM     56  O   UNL     1       6.763   7.505   0.000  0.00  0.00    -0.248 OA
BRANCH  55  57
ATOM     57  O   UNL     1       8.190   7.527   0.000  0.00  0.00    -0.447 OA
BRANCH  57  58
ATOM     58  C   UNL     1       8.190   8.510   0.000  0.00  0.00    +0.209 C 
ATOM     59  C   UNL     1       7.351   8.983   0.000  0.00  0.00    +0.051 C 
ENDBRANCH  57  58
ENDBRANCH  55  57
ENDBRANCH  54  55
BRANCH  54  60
ATOM     60  C   UNL     1       8.190   5.870   0.000  0.00  0.00    +0.033 C 
BRANCH  60  61
ATOM     61  C   UNL     1       8.212   4.888   0.000  0.00  0.00    +0.002 C 
ATOM     62  C   UNL     1       7.366   4.371   0.000  0.00  0.00    +0.000 C 
ATOM     63  C   UNL     1       9.073   4.429   0.000  0.00  0.00    +0.000 C 
ENDBRANCH  60  61
ENDBRANCH  54  60
ENDBRANCH  53  54
ENDBRANCH  27  51
ENDBRANCH  20  42
ENDBRANCH   1  20
BRANCH   6  64
ATOM     64  O   UNL     1      -1.585  -3.489   0.000  0.00  0.00    -0.321 OA
BRANCH  64  65
ATOM     65  C   UNL     1      -1.585  -5.505   0.000  0.00  0.00    +0.281 C 
ATOM     66  O   UNL     1      -2.618  -4.113   0.000  0.00  0.00    -0.317 OA
ATOM     67  C   UNL     1      -4.597  -4.113   0.000  0.00  0.00    +0.239 C 
ATOM     68  C   UNL     1      -5.716  -5.505   0.000  0.00  0.00    +0.248 C 
ATOM     69  C   UNL     1      -4.597  -6.903   0.000  0.00  0.00    +0.256 C 
ATOM     70  C   UNL     1      -2.618  -6.903   0.000  0.00  0.00    +0.268 C 
BRANCH  67  71
ATOM     71  C   UNL     1      -4.597  -3.460   0.000  0.00  0.00    +0.273 C 
ATOM     72  O   UNL     1      -3.858  -2.944   0.000  0.00  0.00    -0.271 OA
ATOM     73  N   UNL     1      -5.558  -3.095   0.000  0.00  0.00    -0.194 NA
BRANCH  73  74
ATOM     74  C   UNL     1      -6.404  -3.095   0.000  0.00  0.00    +0.193 C 
BRANCH  74  75
ATOM     75  C   UNL     1      -6.871  -2.356   0.000  0.00  0.00    +0.337 C 
ATOM     76  O   UNL     1      -6.440  -1.653   0.000  0.00  0.00    -0.248 OA
BRANCH  75  77
ATOM     77  O   UNL     1      -7.681  -2.356   0.000  0.00  0.00    -0.447 OA
BRANCH  77  78
ATOM     78  C   UNL     1      -8.090  -1.653   0.000  0.00  0.00    +0.209 C 
ATOM     79  C   UNL     1      -9.073  -1.653   0.000  0.00  0.00    +0.051 C 
ENDBRANCH  77  78
ENDBRANCH  75  77
ENDBRANCH  74  75
BRANCH  74  80
ATOM     80  C   UNL     1      -6.871  -3.805   0.000  0.00  0.00    +0.033 C 
BRANCH  80  81
ATOM     81  C   UNL     1      -7.832  -3.805   0.000  0.00  0.00    +0.002 C 
ATOM     82  C   UNL     1      -8.298  -2.944   0.000  0.00  0.00    +0.000 C 
ATOM     83  C   UNL     1      -8.334  -4.644   0.000  0.00  0.00    +0.000 C 
ENDBRANCH  80  81
ENDBRANCH  74  80
ENDBRANCH  73  74
ENDBRANCH  67  71
BRANCH  70  84
ATOM     84  O   UNL     1      -2.618  -7.850   0.000  0.00  0.00    -0.443 OA
BRANCH  84  85
ATOM     85  C   UNL     1      -1.965  -8.208   0.000  0.00  0.00    +0.318 C 
ATOM     86  C   UNL     1      -1.965  -8.983   0.000  0.00  0.00    +0.121 C 
ATOM     87  O   UNL     1      -1.226  -7.900   0.000  0.00  0.00    -0.250 OA
ENDBRANCH  84  85
ENDBRANCH  70  84
BRANCH  68  88
ATOM     88  O   UNL     1      -5.716  -6.487   0.000  0.00  0.00    -0.445 OA
BRANCH  88  89
ATOM     89  C   UNL     1      -6.354  -6.917   0.000  0.00  0.00    +0.318 C 
ATOM     90  C   UNL     1      -6.354  -7.742   0.000  0.00  0.00    +0.121 C 
ATOM     91  O   UNL     1      -7.143  -6.645   0.000  0.00  0.00    -0.250 OA
ENDBRANCH  88  89
ENDBRANCH  68  88
BRANCH  69  92
ATOM     92  O   UNL     1      -4.597  -6.042   0.000  0.00  0.00    -0.444 OA
BRANCH  92  93
ATOM     93  C   UNL     1      -3.944  -5.577   0.000  0.00  0.00    +0.318 C 
ATOM     94  C   UNL     1      -3.944  -4.715   0.000  0.00  0.00    +0.121 C 
ATOM     95  O   UNL     1      -3.134  -5.885   0.000  0.00  0.00    -0.250 OA
ENDBRANCH  92  93
ENDBRANCH  69  92
ENDBRANCH  64  65
ENDBRANCH   6  64
BRANCH   5  96
ATOM     96  O   UNL     1      -3.550  -0.807   0.000  0.00  0.00    -0.446 OA
BRANCH  96  97
ATOM     97  C   UNL     1      -2.840  -0.412   0.000  0.00  0.00    +0.318 C 
ATOM     98  C   UNL     1      -2.826   0.448   0.000  0.00  0.00    +0.121 C 
ATOM     99  O   UNL     1      -2.101  -0.757   0.000  0.00  0.00    -0.250 OA
ENDBRANCH  96  97
ENDBRANCH   5  96
BRANCH   4 100
ATOM    100  O   UNL     1      -4.633  -1.165   0.000  0.00  0.00    -0.445 OA
BRANCH 100 101
ATOM    101  C   UNL     1      -4.633  -1.739   0.000  0.00  0.00    +0.318 C 
ATOM    102  C   UNL     1      -4.152  -2.062   0.000  0.00  0.00    +0.121 C 
ATOM    103  O   UNL     1      -5.099  -2.083   0.000  0.00  0.00    -0.250 OA
ENDBRANCH 100 101
ENDBRANCH   4 100
TORSDOF 35
ENDMDL
MODEL      179
REMARK  Name = ethyl 2-[(10-{[4,5-bis(acetyloxy)-6-[(1-ethoxy-3-hydroxy-1-oxopropan-2-yl)carbamoyl]-3-{[3,4,5-tris(acetyloxy)-6-[(1-ethoxy-3-hydroxy-1-oxopropan-2-yl)carbamoyl]oxan-2-yl]oxy}oxan-2-yl]oxy}-2,4a,6a,6b ,9,9,12a-heptamethyl-13-oxo-1,2,3,4,4a,5,6,6a,6b,7,8,8a,9,10,11,12,12a,12b,13,14b-icosahydropicen-2-yl)formamido]-3-hydroxypropanoate
REMARK  32 active torsions:
REMARK  status: ('A' for Active; 'I' for Inactive)
REMARK    1  A    between atoms: C_4  and  C_21
REMARK    2  A    between atoms: C_5  and  C_22
REMARK    3  A    between atoms: C_7  and  O_24
REMARK    4  A    between atoms: C_8  and  O_44
REMARK    5  A    between atoms: C_9  and  O_43
REMARK    6  A    between atoms: C_10  and  O_45
REMARK    7  A    between atoms: C_11  and  O_42
REMARK    8  A    between atoms: C_12  and  O_47
REMARK    9  A    between atoms: C_13  and  O_24
REMARK   10  A    between atoms: C_15  and  O_36
REMARK   11  A    between atoms: C_26  and  C_27
REMARK   12  A    between atoms: N_28  and  CA_33
REMARK   13  A    between atoms: N_29  and  CA_32
REMARK   14  A    between atoms: N_30  and  CA_34
REMARK   15  A    between atoms: CA_32  and  C_40
REMARK   16  A    between atoms: CA_32  and  C_81
REMARK   17  A    between atoms: CA_33  and  C_41
REMARK   18  A    between atoms: CA_33  and  C_79
REMARK   19  A    between atoms: CA_34  and  C_39
REMARK   20  A    between atoms: CA_34  and  C_80
REMARK   21  A    between atoms: O_36  and  C_37
REMARK   22  A    between atoms: C_39  and  O_74
REMARK   23  A    between atoms: C_40  and  O_75
REMARK   24  A    between atoms: C_41  and  O_76
REMARK   25  A    between atoms: O_42  and  C_51
REMARK   26  A    between atoms: O_43  and  C_50
REMARK   27  A    between atoms: O_44  and  C_54
REMARK   28  A    between atoms: O_45  and  C_53
REMARK   29  A    between atoms: O_47  and  C_52
REMARK   30  A    between atoms: O_74  and  C_94
REMARK   31  A    between atoms: O_75  and  C_93
REMARK   32  A    between atoms: O_76  and  C_92
REMARK                            x       y       z     vdW  Elec       q    Type
REMARK                         _______ _______ _______ _____ _____    ______ ____
ROOT
ATOM      1  C   UNL     1      -0.490  -0.364   0.000  0.00  0.00    +0.268 C 
ATOM      2  O   UNL     1      -1.551   1.042   0.000  0.00  0.00    -0.318 OA
ATOM      3  C   UNL     1      -3.542   1.042   0.000  0.00  0.00    +0.238 C 
ATOM      4  C   UNL     1      -4.631  -0.364   0.000  0.00  0.00    +0.247 C 
ATOM      5  C   UNL     1      -3.542  -1.641   0.000  0.00  0.00    +0.243 C 
ATOM      6  C   UNL     1      -1.551  -1.641   0.000  0.00  0.00    +0.217 C 
ENDROOT
BRANCH   3   7
ATOM      7  C   UNL     1      -3.557   1.785   0.000  0.00  0.00    +0.273 C 
ATOM      8  O   UNL     1      -2.864   2.269   0.000  0.00  0.00    -0.271 OA
ATOM      9  N   UNL     1      -4.473   2.218   0.000  0.00  0.00    -0.191 NA
BRANCH   9  10
ATOM     10  CA  UNL     1      -4.473   2.998   0.000  0.00  0.00    +0.226 C 
BRANCH  10  11
ATOM     11  C   UNL     1      -5.187   3.416   0.000  0.00  0.00    +0.340 C 
ATOM     12  O   UNL     1      -5.880   3.034   0.000  0.00  0.00    -0.248 OA
BRANCH  11  13
ATOM     13  O   UNL     1      -5.187   4.159   0.000  0.00  0.00    -0.447 OA
BRANCH  13  14
ATOM     14  C   UNL     1      -6.053   4.643   0.000  0.00  0.00    +0.209 C 
ATOM     15  C   UNL     1      -6.053   5.631   0.000  0.00  0.00    +0.051 C 
ENDBRANCH  13  14
ENDBRANCH  11  13
ENDBRANCH  10  11
BRANCH  10  16
ATOM     16  C   UNL     1      -3.780   3.380   0.000  0.00  0.00    +0.215 C 
ATOM     17  O   UNL     1      -3.780   4.159   0.000  0.00  0.00    -0.218 OA
ENDBRANCH  10  16
ENDBRANCH   9  10
ENDBRANCH   3   7
BRANCH   4  18
ATOM     18  O   UNL     1      -4.631  -1.173   0.000  0.00  0.00    -0.445 OA
BRANCH  18  19
ATOM     19  C   UNL     1      -4.631  -1.750   0.000  0.00  0.00    +0.318 C 
ATOM     20  C   UNL     1      -4.148  -2.074   0.000  0.00  0.00    +0.121 C 
ATOM     21  O   UNL     1      -5.101  -2.096   0.000  0.00  0.00    -0.250 OA
ENDBRANCH  18  19
ENDBRANCH   4  18
BRANCH   1  22
ATOM     22  O   UNL     1      -0.490   1.576   0.000  0.00  0.00    -0.331 OA
BRANCH  22  44
ATOM     23  C   UNL     1       3.542   3.936   0.000  0.00  0.00    -0.042 C 
ATOM     24  C   UNL     1       4.358   4.520   0.000  0.00  0.00    +0.019 C 
ATOM     25  C   UNL     1       5.187   4.037   0.000  0.00  0.00    +0.003 C 
ATOM     26  C   UNL     1       6.089   3.481   0.000  0.00  0.00    +0.000 C 
ATOM     27  C   UNL     1       6.003   4.520   0.000  0.00  0.00    +0.001 C 
ATOM     28  C   UNL     1       6.003   5.436   0.000  0.00  0.00    +0.009 C 
ATOM     29  C   UNL     1       5.187   5.905   0.000  0.00  0.00    +0.071 C 
ATOM     30  C   UNL     1       4.358   6.424   0.000  0.00  0.00    +0.009 C 
ATOM     31  C   UNL     1       5.187   3.084   0.000  0.00  0.00    +0.001 C 
ATOM     32  C   UNL     1       4.358   2.615   0.000  0.00  0.00    +0.004 C 
ATOM     33  C   UNL     1       4.358   5.436   0.000  0.00  0.00    +0.013 C 
ATOM     34  C   UNL     1       2.886   4.346   0.000  0.00  0.00    +0.029 C 
ATOM     35  C   UNL     1       2.244   3.936   0.000  0.00  0.00    +0.172 C 
ATOM     36  O   UNL     1       1.429   4.397   0.000  0.00  0.00    -0.291 OA
ATOM     37  C   UNL     1       2.244   3.171   0.000  0.00  0.00    +0.062 C 
ATOM     38  C   UNL     1       2.886   2.810   0.000  0.00  0.00    +0.010 C 
ATOM     39  C   UNL     1       2.886   3.531   0.000  0.00  0.00    +0.001 C 
ATOM     40  C   UNL     1       2.886   1.973   0.000  0.00  0.00    +0.001 C 
ATOM     41  C   UNL     1       2.244   1.576   0.000  0.00  0.00    +0.000 C 
ATOM     42  C   UNL     1       1.587   1.973   0.000  0.00  0.00    +0.003 C 
ATOM     43  C   UNL     1       0.895   1.576   0.000  0.00  0.00    +0.025 C 
ATOM     44  C   UNL     1       0.253   1.973   0.000  0.00  0.00    +0.118 C 
ATOM     45  C   UNL     1       0.253   2.810   0.000  0.00  0.00    +0.030 C 
ATOM     46  C   UNL     1       0.895   3.171   0.000  0.00  0.00    +0.003 C 
ATOM     47  C   UNL     1       1.465   0.797   0.000  0.00  0.00    +0.002 C 
ATOM     48  C   UNL     1       0.426   0.645   0.000  0.00  0.00    +0.002 C 
ATOM     49  C   UNL     1       1.587   2.810   0.000  0.00  0.00    +0.007 C 
ATOM     50  C   UNL     1       1.587   3.589   0.000  0.00  0.00    +0.000 C 
ATOM     51  C   UNL     1       3.542   3.171   0.000  0.00  0.00    +0.016 C 
ATOM     52  C   UNL     1       3.542   2.290   0.000  0.00  0.00    +0.004 C 
BRANCH  29  53
ATOM     53  C   UNL     1       5.967   6.424   0.000  0.00  0.00    +0.241 C 
ATOM     54  O   UNL     1       5.967   7.435   0.000  0.00  0.00    -0.273 OA
ATOM     55  N   UNL     1       6.796   5.905   0.000  0.00  0.00    -0.193 NA
BRANCH  55  56
ATOM     56  CA  UNL     1       7.561   6.323   0.000  0.00  0.00    +0.226 C 
BRANCH  56  57
ATOM     57  C   UNL     1       7.561   7.153   0.000  0.00  0.00    +0.340 C 
ATOM     58  O   UNL     1       6.832   7.550   0.000  0.00  0.00    -0.248 OA
BRANCH  57  59
ATOM     59  O   UNL     1       8.268   7.572   0.000  0.00  0.00    -0.447 OA
BRANCH  59  60
ATOM     60  C   UNL     1       8.268   8.560   0.000  0.00  0.00    +0.209 C 
ATOM     61  C   UNL     1       9.098   9.036   0.000  0.00  0.00    +0.051 C 
ENDBRANCH  59  60
ENDBRANCH  57  59
ENDBRANCH  56  57
BRANCH  56  62
ATOM     62  C   UNL     1       8.268   5.905   0.000  0.00  0.00    +0.215 C 
ATOM     63  O   UNL     1       8.290   4.917   0.000  0.00  0.00    -0.218 OA
ENDBRANCH  56  62
ENDBRANCH  55  56
ENDBRANCH  29  53
ENDBRANCH  22  44
ENDBRANCH   1  22
BRANCH   6  64
ATOM     64  O   UNL     1      -1.565  -3.510   0.000  0.00  0.00    -0.321 OA
BRANCH  64  65
ATOM     65  C   UNL     1      -1.565  -5.537   0.000  0.00  0.00    +0.281 C 
ATOM     66  O   UNL     1      -2.604  -4.138   0.000  0.00  0.00    -0.317 OA
ATOM     67  C   UNL     1      -4.596  -4.138   0.000  0.00  0.00    +0.239 C 
ATOM     68  C   UNL     1      -5.721  -5.537   0.000  0.00  0.00    +0.248 C 
ATOM     69  C   UNL     1      -4.596  -6.944   0.000  0.00  0.00    +0.256 C 
ATOM     70  C   UNL     1      -2.604  -6.944   0.000  0.00  0.00    +0.268 C 
BRANCH  67  71
ATOM     71  C   UNL     1      -4.596  -3.481   0.000  0.00  0.00    +0.273 C 
ATOM     72  O   UNL     1      -3.852  -2.962   0.000  0.00  0.00    -0.271 OA
ATOM     73  N   UNL     1      -5.562  -3.113   0.000  0.00  0.00    -0.191 NA
BRANCH  73  74
ATOM     74  CA  UNL     1      -6.414  -3.113   0.000  0.00  0.00    +0.226 C 
BRANCH  74  75
ATOM     75  C   UNL     1      -6.883  -2.370   0.000  0.00  0.00    +0.340 C 
ATOM     76  O   UNL     1      -6.450  -1.663   0.000  0.00  0.00    -0.248 OA
BRANCH  75  77
ATOM     77  O   UNL     1      -7.698  -2.370   0.000  0.00  0.00    -0.447 OA
BRANCH  77  78
ATOM     78  C   UNL     1      -8.167  -1.454   0.000  0.00  0.00    +0.209 C 
ATOM     79  C   UNL     1      -9.098  -1.454   0.000  0.00  0.00    +0.051 C 
ENDBRANCH  77  78
ENDBRANCH  75  77
ENDBRANCH  74  75
BRANCH  74  80
ATOM     80  C   UNL     1      -6.883  -3.828   0.000  0.00  0.00    +0.215 C 
ATOM     81  O   UNL     1      -7.849  -3.828   0.000  0.00  0.00    -0.218 OA
ENDBRANCH  74  80
ENDBRANCH  73  74
ENDBRANCH  67  71
BRANCH  69  82
ATOM     82  O   UNL     1      -4.596  -6.078   0.000  0.00  0.00    -0.444 OA
BRANCH  82  83
ATOM     83  C   UNL     1      -3.939  -5.609   0.000  0.00  0.00    +0.318 C 
ATOM     84  C   UNL     1      -3.939  -4.744   0.000  0.00  0.00    +0.121 C 
ATOM     85  O   UNL     1      -3.124  -5.919   0.000  0.00  0.00    -0.250 OA
ENDBRANCH  82  83
ENDBRANCH  69  82
BRANCH  68  86
ATOM     86  O   UNL     1      -5.721  -6.526   0.000  0.00  0.00    -0.445 OA
BRANCH  86  87
ATOM     87  C   UNL     1      -6.363  -6.958   0.000  0.00  0.00    +0.318 C 
ATOM     88  C   UNL     1      -6.363  -7.788   0.000  0.00  0.00    +0.121 C 
ATOM     89  O   UNL     1      -7.157  -6.684   0.000  0.00  0.00    -0.250 OA
ENDBRANCH  86  87
ENDBRANCH  68  86
BRANCH  70  90
ATOM     90  O   UNL     1      -2.604  -7.896   0.000  0.00  0.00    -0.443 OA
BRANCH  90  91
ATOM     91  C   UNL     1      -1.948  -8.257   0.000  0.00  0.00    +0.318 C 
ATOM     92  C   UNL     1      -1.948  -9.036   0.000  0.00  0.00    +0.121 C 
ATOM     93  O   UNL     1      -1.205  -7.947   0.000  0.00  0.00    -0.250 OA
ENDBRANCH  90  91
ENDBRANCH  70  90
ENDBRANCH  64  65
ENDBRANCH   6  64
BRANCH   5  94
ATOM     94  O   UNL     1      -3.542  -0.812   0.000  0.00  0.00    -0.446 OA
BRANCH  94  95
ATOM     95  C   UNL     1      -2.828  -0.415   0.000  0.00  0.00    +0.318 C 
ATOM     96  C   UNL     1      -2.814   0.451   0.000  0.00  0.00    +0.121 C 
ATOM     97  O   UNL     1      -2.085  -0.761   0.000  0.00  0.00    -0.250 OA
ENDBRANCH  94  95
ENDBRANCH   5  94
TORSDOF 32
ENDMDL
MODEL      180
REMARK  Name = ethyl 2-[(10-{[4,5-bis(acetyloxy)-6-[(1-ethoxy-1-oxopropan-2-yl)carbamoyl]-3-{[3,4,5-tris(acetyloxy)-6-[(1-ethoxy-1-oxopropan-2-yl)carbamoyl]oxan-2-yl]oxy}oxan-2-yl]oxy}-2,4a,6a,6b,9,9,12a-heptamethyl -13-oxo-1,2,3,4,4a,5,6,6a,6b,7,8,8a,9,10,11,12,12a,12b,13,14b-icosahydropicen-2-yl)formamido]propanoate
REMARK  29 active torsions:
REMARK  status: ('A' for Active; 'I' for Inactive)
REMARK    1  A    between atoms: C_4  and  C_21
REMARK    2  A    between atoms: C_5  and  C_22
REMARK    3  A    between atoms: C_7  and  O_24
REMARK    4  A    between atoms: C_8  and  O_38
REMARK    5  A    between atoms: C_9  and  O_37
REMARK    6  A    between atoms: C_10  and  O_39
REMARK    7  A    between atoms: C_11  and  O_36
REMARK    8  A    between atoms: C_12  and  O_41
REMARK    9  A    between atoms: C_13  and  O_24
REMARK   10  A    between atoms: C_15  and  O_32
REMARK   11  A    between atoms: C_26  and  C_27
REMARK   12  A    between atoms: N_29  and  C_47
REMARK   13  A    between atoms: N_30  and  C_48
REMARK   14  A    between atoms: O_32  and  C_33
REMARK   15  A    between atoms: N_34  and  C_49
REMARK   16  A    between atoms: O_36  and  C_53
REMARK   17  A    between atoms: O_37  and  C_52
REMARK   18  A    between atoms: O_38  and  C_51
REMARK   19  A    between atoms: O_39  and  C_50
REMARK   20  A    between atoms: O_41  and  C_54
REMARK   21  A    between atoms: C_44  and  C_47
REMARK   22  A    between atoms: C_44  and  O_74
REMARK   23  A    between atoms: C_45  and  C_48
REMARK   24  A    between atoms: C_45  and  O_75
REMARK   25  A    between atoms: C_46  and  C_49
REMARK   26  A    between atoms: C_46  and  O_76
REMARK   27  A    between atoms: O_74  and  C_91
REMARK   28  A    between atoms: O_75  and  C_89
REMARK   29  A    between atoms: O_76  and  C_90
REMARK                            x       y       z     vdW  Elec       q    Type
REMARK                         _______ _______ _______ _____ _____    ______ ____
ROOT
ATOM      1  C   UNL     1      -0.749  -0.434   0.000  0.00  0.00    +0.268 C 
ATOM      2  O   UNL     1      -1.804   0.976   0.000  0.00  0.00    -0.318 OA
ATOM      3  C   UNL     1      -3.821   0.976   0.000  0.00  0.00    +0.238 C 
ATOM      4  C   UNL     1      -4.913  -0.434   0.000  0.00  0.00    +0.247 C 
ATOM      5  C   UNL     1      -3.821  -1.714   0.000  0.00  0.00    +0.243 C 
ATOM      6  C   UNL     1      -1.804  -1.714   0.000  0.00  0.00    +0.217 C 
ENDROOT
BRANCH   3   7
ATOM      7  C   UNL     1      -3.836   1.736   0.000  0.00  0.00    +0.273 C 
ATOM      8  O   UNL     1      -3.142   2.205   0.000  0.00  0.00    -0.271 OA
ATOM      9  N   UNL     1      -4.530   2.191   0.000  0.00  0.00    -0.200 NA
BRANCH   9  10
ATOM     10  C   UNL     1      -4.530   3.022   0.000  0.00  0.00    +0.214 C 
ATOM     11  C   UNL     1      -4.530   3.839   0.000  0.00  0.00    +0.029 C 
BRANCH  10  12
ATOM     12  C   UNL     1      -5.311   3.022   0.000  0.00  0.00    +0.331 C 
ATOM     13  O   UNL     1      -5.759   2.314   0.000  0.00  0.00    -0.249 OA
BRANCH  12  14
ATOM     14  O   UNL     1      -5.759   3.716   0.000  0.00  0.00    -0.448 OA
BRANCH  14  15
ATOM     15  C   UNL     1      -6.598   3.716   0.000  0.00  0.00    +0.209 C 
ATOM     16  C   UNL     1      -6.945   4.635   0.000  0.00  0.00    +0.051 C 
ENDBRANCH  14  15
ENDBRANCH  12  14
ENDBRANCH  10  12
ENDBRANCH   9  10
ENDBRANCH   3   7
BRANCH   1  17
ATOM     17  O   UNL     1      -0.749   1.511   0.000  0.00  0.00    -0.331 OA
BRANCH  17  39
ATOM     18  C   UNL     1       3.279   3.890   0.000  0.00  0.00    -0.042 C 
ATOM     19  C   UNL     1       4.111   4.461   0.000  0.00  0.00    +0.019 C 
ATOM     20  C   UNL     1       4.927   3.991   0.000  0.00  0.00    +0.003 C 
ATOM     21  C   UNL     1       5.831   3.442   0.000  0.00  0.00    +0.000 C 
ATOM     22  C   UNL     1       5.745   4.461   0.000  0.00  0.00    +0.001 C 
ATOM     23  C   UNL     1       5.745   5.380   0.000  0.00  0.00    +0.009 C 
ATOM     24  C   UNL     1       4.927   5.849   0.000  0.00  0.00    +0.071 C 
ATOM     25  C   UNL     1       4.111   6.370   0.000  0.00  0.00    +0.009 C 
ATOM     26  C   UNL     1       4.927   3.037   0.000  0.00  0.00    +0.001 C 
ATOM     27  C   UNL     1       4.111   2.574   0.000  0.00  0.00    +0.004 C 
ATOM     28  C   UNL     1       4.111   5.380   0.000  0.00  0.00    +0.013 C 
ATOM     29  C   UNL     1       2.635   4.288   0.000  0.00  0.00    +0.029 C 
ATOM     30  C   UNL     1       1.992   3.890   0.000  0.00  0.00    +0.172 C 
ATOM     31  O   UNL     1       1.182   4.360   0.000  0.00  0.00    -0.291 OA
ATOM     32  C   UNL     1       1.992   3.124   0.000  0.00  0.00    +0.062 C 
ATOM     33  C   UNL     1       2.635   2.762   0.000  0.00  0.00    +0.010 C 
ATOM     34  C   UNL     1       2.635   3.493   0.000  0.00  0.00    +0.001 C 
ATOM     35  C   UNL     1       2.635   1.931   0.000  0.00  0.00    +0.001 C 
ATOM     36  C   UNL     1       1.992   1.511   0.000  0.00  0.00    +0.000 C 
ATOM     37  C   UNL     1       1.334   1.931   0.000  0.00  0.00    +0.003 C 
ATOM     38  C   UNL     1       0.640   1.511   0.000  0.00  0.00    +0.025 C 
ATOM     39  C   UNL     1      -0.018   1.931   0.000  0.00  0.00    +0.118 C 
ATOM     40  C   UNL     1      -0.018   2.762   0.000  0.00  0.00    +0.030 C 
ATOM     41  C   UNL     1       0.640   3.124   0.000  0.00  0.00    +0.003 C 
ATOM     42  C   UNL     1       1.211   0.730   0.000  0.00  0.00    +0.002 C 
ATOM     43  C   UNL     1       0.170   0.578   0.000  0.00  0.00    +0.002 C 
ATOM     44  C   UNL     1       1.334   2.762   0.000  0.00  0.00    +0.007 C 
ATOM     45  C   UNL     1       1.334   3.543   0.000  0.00  0.00    +0.000 C 
ATOM     46  C   UNL     1       3.279   3.124   0.000  0.00  0.00    +0.016 C 
ATOM     47  C   UNL     1       3.294   2.241   0.000  0.00  0.00    +0.004 C 
BRANCH  24  48
ATOM     48  C   UNL     1       5.708   6.370   0.000  0.00  0.00    +0.241 C 
ATOM     49  O   UNL     1       5.708   7.375   0.000  0.00  0.00    -0.273 OA
ATOM     50  N   UNL     1       6.960   5.763   0.000  0.00  0.00    -0.202 NA
BRANCH  50  51
ATOM     51  C   UNL     1       7.653   6.160   0.000  0.00  0.00    +0.213 C 
ATOM     52  C   UNL     1       8.087   5.437   0.000  0.00  0.00    +0.029 C 
BRANCH  51  53
ATOM     53  C   UNL     1       7.220   6.891   0.000  0.00  0.00    +0.331 C 
ATOM     54  O   UNL     1       6.489   6.891   0.000  0.00  0.00    -0.249 OA
BRANCH  53  55
ATOM     55  O   UNL     1       7.653   7.606   0.000  0.00  0.00    -0.448 OA
BRANCH  55  56
ATOM     56  C   UNL     1       7.220   8.337   0.000  0.00  0.00    +0.209 C 
ATOM     57  C   UNL     1       7.827   9.125   0.000  0.00  0.00    +0.051 C 
ENDBRANCH  55  56
ENDBRANCH  53  55
ENDBRANCH  51  53
ENDBRANCH  50  51
ENDBRANCH  24  48
ENDBRANCH  17  39
ENDBRANCH   1  17
BRANCH   6  58
ATOM     58  O   UNL     1      -1.826  -3.586   0.000  0.00  0.00    -0.321 OA
BRANCH  58  59
ATOM     59  C   UNL     1      -1.826  -5.618   0.000  0.00  0.00    +0.281 C 
ATOM     60  O   UNL     1      -2.881  -4.216   0.000  0.00  0.00    -0.317 OA
ATOM     61  C   UNL     1      -4.877  -4.216   0.000  0.00  0.00    +0.238 C 
ATOM     62  C   UNL     1      -6.005  -5.618   0.000  0.00  0.00    +0.248 C 
ATOM     63  C   UNL     1      -4.877  -7.028   0.000  0.00  0.00    +0.256 C 
ATOM     64  C   UNL     1      -2.881  -7.028   0.000  0.00  0.00    +0.268 C 
BRANCH  61  65
ATOM     65  C   UNL     1      -4.877  -3.557   0.000  0.00  0.00    +0.273 C 
ATOM     66  O   UNL     1      -4.133  -3.037   0.000  0.00  0.00    -0.271 OA
ATOM     67  N   UNL     1      -5.672  -3.037   0.000  0.00  0.00    -0.200 NA
BRANCH  67  68
ATOM     68  C   UNL     1      -6.786  -3.037   0.000  0.00  0.00    +0.214 C 
ATOM     69  C   UNL     1      -7.617  -3.037   0.000  0.00  0.00    +0.029 C 
BRANCH  68  70
ATOM     70  C   UNL     1      -6.786  -2.343   0.000  0.00  0.00    +0.331 C 
ATOM     71  O   UNL     1      -6.056  -1.909   0.000  0.00  0.00    -0.249 OA
BRANCH  70  72
ATOM     72  O   UNL     1      -7.516  -1.909   0.000  0.00  0.00    -0.448 OA
BRANCH  72  73
ATOM     73  C   UNL     1      -7.516  -0.955   0.000  0.00  0.00    +0.209 C 
ATOM     74  C   UNL     1      -8.362  -0.463   0.000  0.00  0.00    +0.051 C 
ENDBRANCH  72  73
ENDBRANCH  70  72
ENDBRANCH  68  70
ENDBRANCH  67  68
ENDBRANCH  61  65
BRANCH  63  75
ATOM     75  O   UNL     1      -4.877  -6.160   0.000  0.00  0.00    -0.444 OA
BRANCH  75  76
ATOM     76  C   UNL     1      -4.219  -5.691   0.000  0.00  0.00    +0.318 C 
ATOM     77  C   UNL     1      -4.219  -4.823   0.000  0.00  0.00    +0.121 C 
ATOM     78  O   UNL     1      -3.402  -6.001   0.000  0.00  0.00    -0.250 OA
ENDBRANCH  75  76
ENDBRANCH  63  75
BRANCH  62  79
ATOM     79  O   UNL     1      -6.005  -6.609   0.000  0.00  0.00    -0.445 OA
BRANCH  79  80
ATOM     80  C   UNL     1      -6.649  -7.043   0.000  0.00  0.00    +0.318 C 
ATOM     81  C   UNL     1      -6.649  -7.874   0.000  0.00  0.00    +0.121 C 
ATOM     82  O   UNL     1      -7.444  -6.768   0.000  0.00  0.00    -0.250 OA
ENDBRANCH  79  80
ENDBRANCH  62  79
BRANCH  64  83
ATOM     83  O   UNL     1      -2.881  -7.983   0.000  0.00  0.00    -0.443 OA
BRANCH  83  84
ATOM     84  C   UNL     1      -2.224  -8.344   0.000  0.00  0.00    +0.318 C 
ATOM     85  C   UNL     1      -2.224  -9.125   0.000  0.00  0.00    +0.121 C 
ATOM     86  O   UNL     1      -1.457  -8.033   0.000  0.00  0.00    -0.250 OA
ENDBRANCH  83  84
ENDBRANCH  64  83
ENDBRANCH  58  59
ENDBRANCH   6  58
BRANCH   4  87
ATOM     87  O   UNL     1      -4.913  -1.244   0.000  0.00  0.00    -0.445 OA
BRANCH  87  88
ATOM     88  C   UNL     1      -4.913  -1.822   0.000  0.00  0.00    +0.318 C 
ATOM     89  C   UNL     1      -4.429  -2.147   0.000  0.00  0.00    +0.121 C 
ATOM     90  O   UNL     1      -5.383  -2.170   0.000  0.00  0.00    -0.250 OA
ENDBRANCH  87  88
ENDBRANCH   4  87
BRANCH   5  91
ATOM     91  O   UNL     1      -3.821  -0.882   0.000  0.00  0.00    -0.446 OA
BRANCH  91  92
ATOM     92  C   UNL     1      -3.106  -0.484   0.000  0.00  0.00    +0.318 C 
ATOM     93  C   UNL     1      -3.091   0.383   0.000  0.00  0.00    +0.121 C 
ATOM     94  O   UNL     1      -2.361  -0.832   0.000  0.00  0.00    -0.250 OA
ENDBRANCH  91  92
ENDBRANCH   5  91
TORSDOF 29
ENDMDL
MODEL      181
REMARK  Name = methyl 2-{[3,4-bis(acetyloxy)-6-({11-[(1-methoxy-1-oxo-3-phenylpropan-2-yl)carbamoyl]-4,4,6a,6b,8a,11,14b-heptamethyl-14-oxo-1,2,3,4,4a,5,6,6a,6b,7,8,8a,9,10,11,12,12a,14,14a,14b-icosahydropicen-3-yl} oxy)-5-{[3,4,5-tris(acetyloxy)-6-[(1-methoxy-1-oxo-3-phenylpropan-2-yl)carbamoyl]oxan-2-yl]oxy}oxan-2-yl]formamido}-3-phenylpropanoate
REMARK  32 active torsions:
REMARK  status: ('A' for Active; 'I' for Inactive)
REMARK    1  A    between atoms: C_4  and  C_21
REMARK    2  A    between atoms: C_5  and  C_22
REMARK    3  A    between atoms: C_7  and  O_24
REMARK    4  A    between atoms: C_8  and  O_41
REMARK    5  A    between atoms: C_9  and  O_40
REMARK    6  A    between atoms: C_10  and  O_42
REMARK    7  A    between atoms: C_11  and  O_39
REMARK    8  A    between atoms: C_12  and  O_44
REMARK    9  A    between atoms: C_13  and  O_24
REMARK   10  A    between atoms: C_15  and  O_33
REMARK   11  A    between atoms: C_26  and  C_27
REMARK   12  A    between atoms: N_28  and  C_37
REMARK   13  A    between atoms: N_29  and  C_36
REMARK   14  A    between atoms: N_31  and  C_38
REMARK   15  A    between atoms: O_33  and  C_34
REMARK   16  A    between atoms: C_36  and  C_46
REMARK   17  A    between atoms: C_36  and  C_65
REMARK   18  A    between atoms: C_37  and  C_47
REMARK   19  A    between atoms: C_37  and  C_63
REMARK   20  A    between atoms: C_38  and  C_48
REMARK   21  A    between atoms: C_38  and  C_64
REMARK   22  A    between atoms: O_39  and  C_51
REMARK   23  A    between atoms: O_40  and  C_50
REMARK   24  A    between atoms: O_41  and  C_54
REMARK   25  A    between atoms: O_42  and  C_53
REMARK   26  A    between atoms: O_44  and  C_52
REMARK   27  A    between atoms: C_46  and  O_78
REMARK   28  A    between atoms: C_47  and  O_79
REMARK   29  A    between atoms: C_48  and  O_77
REMARK   30  A    between atoms: C_63  and  C_80
REMARK   31  A    between atoms: C_64  and  C_81
REMARK   32  A    between atoms: C_65  and  C_82
REMARK                            x       y       z     vdW  Elec       q    Type
REMARK                         _______ _______ _______ _____ _____    ______ ____
ROOT
ATOM      1  C   UNL     1      -0.111  -0.126   0.000  0.00  0.00    +0.268 C 
ATOM      2  O   UNL     1      -1.168   1.276   0.000  0.00  0.00    -0.318 OA
ATOM      3  C   UNL     1      -3.152   1.276   0.000  0.00  0.00    +0.238 C 
ATOM      4  C   UNL     1      -4.237  -0.126   0.000  0.00  0.00    +0.247 C 
ATOM      5  C   UNL     1      -3.152  -1.398   0.000  0.00  0.00    +0.243 C 
ATOM      6  C   UNL     1      -1.168  -1.398   0.000  0.00  0.00    +0.217 C 
ENDROOT
BRANCH   3   7
ATOM      7  C   UNL     1      -3.167   2.016   0.000  0.00  0.00    +0.273 C 
ATOM      8  O   UNL     1      -2.476   2.498   0.000  0.00  0.00    -0.271 OA
ATOM      9  N   UNL     1      -4.079   2.447   0.000  0.00  0.00    -0.193 NA
BRANCH   9  10
ATOM     10  C   UNL     1      -4.079   3.224   0.000  0.00  0.00    +0.198 C 
BRANCH  10  11
ATOM     11  C   UNL     1      -4.791   3.641   0.000  0.00  0.00    +0.337 C 
ATOM     12  O   UNL     1      -5.481   3.260   0.000  0.00  0.00    -0.248 OA
BRANCH  11  13
ATOM     13  O   UNL     1      -4.791   4.381   0.000  0.00  0.00    -0.443 OA
ATOM     14  C   UNL     1      -5.653   4.863   0.000  0.00  0.00    +0.256 C 
ENDBRANCH  11  13
ENDBRANCH  10  11
BRANCH  10  15
ATOM     15  C   UNL     1      -3.389   3.605   0.000  0.00  0.00    +0.059 C 
BRANCH  15  16
ATOM     16  C   UNL     1      -3.389   4.590   0.000  0.00  0.00    -0.020 A 
ATOM     17  C   UNL     1      -4.251   5.086   0.000  0.00  0.00    -0.004 A 
ATOM     18  C   UNL     1      -4.237   6.085   0.000  0.00  0.00    -0.000 A 
ATOM     19  C   UNL     1      -3.389   6.573   0.000  0.00  0.00    -0.000 A 
ATOM     20  C   UNL     1      -2.527   6.070   0.000  0.00  0.00    -0.000 A 
ATOM     21  C   UNL     1      -2.527   5.071   0.000  0.00  0.00    -0.004 A 
ENDBRANCH  15  16
ENDBRANCH  10  15
ENDBRANCH   9  10
ENDBRANCH   3   7
BRANCH   6  22
ATOM     22  O   UNL     1      -1.182  -3.260   0.000  0.00  0.00    -0.321 OA
BRANCH  22  23
ATOM     23  C   UNL     1      -1.182  -5.280   0.000  0.00  0.00    +0.281 C 
ATOM     24  O   UNL     1      -2.217  -3.885   0.000  0.00  0.00    -0.317 OA
ATOM     25  C   UNL     1      -4.202  -3.885   0.000  0.00  0.00    +0.239 C 
ATOM     26  C   UNL     1      -5.323  -5.280   0.000  0.00  0.00    +0.248 C 
ATOM     27  C   UNL     1      -4.202  -6.681   0.000  0.00  0.00    +0.256 C 
ATOM     28  C   UNL     1      -2.217  -6.681   0.000  0.00  0.00    +0.268 C 
BRANCH  25  29
ATOM     29  C   UNL     1      -4.202  -3.231   0.000  0.00  0.00    +0.273 C 
ATOM     30  O   UNL     1      -3.461  -2.714   0.000  0.00  0.00    -0.271 OA
ATOM     31  N   UNL     1      -5.165  -2.864   0.000  0.00  0.00    -0.193 NA
BRANCH  31  32
ATOM     32  C   UNL     1      -6.013  -2.864   0.000  0.00  0.00    +0.198 C 
BRANCH  32  33
ATOM     33  C   UNL     1      -6.480  -2.124   0.000  0.00  0.00    +0.337 C 
ATOM     34  O   UNL     1      -6.049  -1.420   0.000  0.00  0.00    -0.248 OA
BRANCH  33  35
ATOM     35  O   UNL     1      -7.292  -2.124   0.000  0.00  0.00    -0.443 OA
ATOM     36  C   UNL     1      -7.760  -1.211   0.000  0.00  0.00    +0.256 C 
ENDBRANCH  33  35
ENDBRANCH  32  33
BRANCH  32  37
ATOM     37  C   UNL     1      -6.480  -3.576   0.000  0.00  0.00    +0.059 C 
BRANCH  37  38
ATOM     38  C   UNL     1      -7.479  -3.576   0.000  0.00  0.00    -0.020 A 
ATOM     39  C   UNL     1      -7.997  -4.453   0.000  0.00  0.00    -0.004 A 
ATOM     40  C   UNL     1      -9.018  -4.417   0.000  0.00  0.00    -0.000 A 
ATOM     41  C   UNL     1      -9.499  -3.576   0.000  0.00  0.00    -0.000 A 
ATOM     42  C   UNL     1      -8.981  -2.692   0.000  0.00  0.00    -0.000 A 
ATOM     43  C   UNL     1      -7.961  -2.714   0.000  0.00  0.00    -0.004 A 
ENDBRANCH  37  38
ENDBRANCH  32  37
ENDBRANCH  31  32
ENDBRANCH  25  29
BRANCH  27  44
ATOM     44  O   UNL     1      -4.202  -5.819   0.000  0.00  0.00    -0.444 OA
BRANCH  44  45
ATOM     45  C   UNL     1      -3.547  -5.352   0.000  0.00  0.00    +0.318 C 
ATOM     46  C   UNL     1      -3.547  -4.489   0.000  0.00  0.00    +0.121 C 
ATOM     47  O   UNL     1      -2.735  -5.661   0.000  0.00  0.00    -0.250 OA
ENDBRANCH  44  45
ENDBRANCH  27  44
BRANCH  26  48
ATOM     48  O   UNL     1      -5.323  -6.265   0.000  0.00  0.00    -0.445 OA
BRANCH  48  49
ATOM     49  C   UNL     1      -5.962  -6.696   0.000  0.00  0.00    +0.318 C 
ATOM     50  C   UNL     1      -5.962  -7.522   0.000  0.00  0.00    +0.121 C 
ATOM     51  O   UNL     1      -6.753  -6.423   0.000  0.00  0.00    -0.250 OA
ENDBRANCH  48  49
ENDBRANCH  26  48
BRANCH  28  52
ATOM     52  O   UNL     1      -2.217  -7.630   0.000  0.00  0.00    -0.443 OA
BRANCH  52  53
ATOM     53  C   UNL     1      -1.563  -7.989   0.000  0.00  0.00    +0.318 C 
ATOM     54  C   UNL     1      -1.563  -8.766   0.000  0.00  0.00    +0.121 C 
ATOM     55  O   UNL     1      -0.823  -7.681   0.000  0.00  0.00    -0.250 OA
ENDBRANCH  52  53
ENDBRANCH  28  52
ENDBRANCH  22  23
ENDBRANCH   6  22
BRANCH   1  56
ATOM     56  O   UNL     1      -0.111   1.808   0.000  0.00  0.00    -0.331 OA
BRANCH  56  78
ATOM     57  C   UNL     1       3.907   4.158   0.000  0.00  0.00    -0.042 C 
ATOM     58  C   UNL     1       4.719   4.741   0.000  0.00  0.00    +0.019 C 
ATOM     59  C   UNL     1       5.546   4.259   0.000  0.00  0.00    +0.003 C 
ATOM     60  C   UNL     1       6.444   3.705   0.000  0.00  0.00    +0.000 C 
ATOM     61  C   UNL     1       6.358   4.741   0.000  0.00  0.00    +0.001 C 
ATOM     62  C   UNL     1       6.358   5.653   0.000  0.00  0.00    +0.009 C 
ATOM     63  C   UNL     1       5.546   6.121   0.000  0.00  0.00    +0.071 C 
ATOM     64  C   UNL     1       4.719   6.638   0.000  0.00  0.00    +0.009 C 
ATOM     65  C   UNL     1       5.546   3.310   0.000  0.00  0.00    +0.001 C 
ATOM     66  C   UNL     1       4.719   2.843   0.000  0.00  0.00    +0.004 C 
ATOM     67  C   UNL     1       4.719   5.653   0.000  0.00  0.00    +0.013 C 
ATOM     68  C   UNL     1       3.253   4.568   0.000  0.00  0.00    +0.029 C 
ATOM     69  C   UNL     1       2.613   4.158   0.000  0.00  0.00    +0.172 C 
ATOM     70  O   UNL     1       1.801   4.618   0.000  0.00  0.00    -0.291 OA
ATOM     71  C   UNL     1       2.613   3.396   0.000  0.00  0.00    +0.062 C 
ATOM     72  C   UNL     1       3.253   3.037   0.000  0.00  0.00    +0.010 C 
ATOM     73  C   UNL     1       3.253   3.756   0.000  0.00  0.00    +0.001 C 
ATOM     74  C   UNL     1       3.253   2.203   0.000  0.00  0.00    +0.001 C 
ATOM     75  C   UNL     1       2.613   1.808   0.000  0.00  0.00    +0.000 C 
ATOM     76  C   UNL     1       1.959   2.203   0.000  0.00  0.00    +0.003 C 
ATOM     77  C   UNL     1       1.269   1.808   0.000  0.00  0.00    +0.025 C 
ATOM     78  C   UNL     1       0.629   2.203   0.000  0.00  0.00    +0.118 C 
ATOM     79  C   UNL     1       0.629   3.037   0.000  0.00  0.00    +0.030 C 
ATOM     80  C   UNL     1       1.269   3.396   0.000  0.00  0.00    +0.003 C 
ATOM     81  C   UNL     1       1.837   1.031   0.000  0.00  0.00    +0.002 C 
ATOM     82  C   UNL     1       0.801   0.880   0.000  0.00  0.00    +0.002 C 
ATOM     83  C   UNL     1       1.959   3.037   0.000  0.00  0.00    +0.007 C 
ATOM     84  C   UNL     1       1.959   3.813   0.000  0.00  0.00    +0.000 C 
ATOM     85  C   UNL     1       3.907   3.396   0.000  0.00  0.00    +0.016 C 
ATOM     86  C   UNL     1       3.907   2.519   0.000  0.00  0.00    +0.004 C 
BRANCH  63  87
ATOM     87  C   UNL     1       6.322   6.638   0.000  0.00  0.00    +0.241 C 
ATOM     88  O   UNL     1       6.322   7.645   0.000  0.00  0.00    -0.273 OA
ATOM     89  N   UNL     1       7.149   6.121   0.000  0.00  0.00    -0.195 NA
BRANCH  89  90
ATOM     90  C   UNL     1       7.911   6.537   0.000  0.00  0.00    +0.198 C 
BRANCH  90  91
ATOM     91  C   UNL     1       7.911   7.364   0.000  0.00  0.00    +0.337 C 
ATOM     92  O   UNL     1       7.185   7.760   0.000  0.00  0.00    -0.248 OA
BRANCH  91  93
ATOM     93  O   UNL     1       8.615   7.781   0.000  0.00  0.00    -0.443 OA
ATOM     94  C   UNL     1       8.615   8.766   0.000  0.00  0.00    +0.256 C 
ENDBRANCH  91  93
ENDBRANCH  90  91
BRANCH  90  95
ATOM     95  C   UNL     1       8.615   6.121   0.000  0.00  0.00    +0.059 C 
BRANCH  95  96
ATOM     96  C   UNL     1       8.636   5.136   0.000  0.00  0.00    -0.020 A 
ATOM     97  C   UNL     1       9.499   4.640   0.000  0.00  0.00    -0.004 A 
ATOM     98  C   UNL     1       9.499   3.619   0.000  0.00  0.00    -0.000 A 
ATOM     99  C   UNL     1       8.615   3.123   0.000  0.00  0.00    -0.000 A 
ATOM    100  C   UNL     1       7.774   3.641   0.000  0.00  0.00    -0.000 A 
ATOM    101  C   UNL     1       7.788   4.640   0.000  0.00  0.00    -0.004 A 
ENDBRANCH  95  96
ENDBRANCH  90  95
ENDBRANCH  89  90
ENDBRANCH  63  87
ENDBRANCH  56  78
ENDBRANCH   1  56
BRANCH   4 102
ATOM    102  O   UNL     1      -4.237  -0.931   0.000  0.00  0.00    -0.445 OA
BRANCH 102 103
ATOM    103  C   UNL     1      -4.237  -1.506   0.000  0.00  0.00    +0.318 C 
ATOM    104  C   UNL     1      -3.756  -1.829   0.000  0.00  0.00    +0.121 C 
ATOM    105  O   UNL     1      -4.704  -1.851   0.000  0.00  0.00    -0.250 OA
ENDBRANCH 102 103
ENDBRANCH   4 102
BRANCH   5 106
ATOM    106  O   UNL     1      -3.152  -0.571   0.000  0.00  0.00    -0.446 OA
BRANCH 106 107
ATOM    107  C   UNL     1      -2.440  -0.176   0.000  0.00  0.00    +0.318 C 
ATOM    108  C   UNL     1      -2.426   0.687   0.000  0.00  0.00    +0.121 C 
ATOM    109  O   UNL     1      -1.700  -0.521   0.000  0.00  0.00    -0.250 OA
ENDBRANCH 106 107
ENDBRANCH   5 106
TORSDOF 32
ENDMDL
MODEL      182
REMARK  Name = methyl 3,4-bis(acetyloxy)-6-{[11-(methoxycarbonyl)-4,4,6a,6b,8a,11,14b-heptamethyl-14-oxo-1,2,3,4,4a,5,6,6a,6b,7,8,8a,9,10,11,12,12a,14,14a,14b-icosahydropicen-3-yl]oxy}-5-{[3,4,5-tris(acetyloxy)-6-(m ethoxycarbonyl)oxan-2-yl]oxy}oxane-2-carboxylate
REMARK  20 active torsions:
REMARK  status: ('A' for Active; 'I' for Inactive)
REMARK    1  A    between atoms: C_5  and  O_22
REMARK    2  A    between atoms: C_6  and  C_27
REMARK    3  A    between atoms: C_7  and  C_28
REMARK    4  A    between atoms: C_8  and  O_35
REMARK    5  A    between atoms: C_9  and  O_34
REMARK    6  A    between atoms: C_10  and  O_33
REMARK    7  A    between atoms: C_11  and  O_36
REMARK    8  A    between atoms: C_12  and  O_38
REMARK    9  A    between atoms: C_13  and  O_22
REMARK   10  A    between atoms: C_15  and  O_29
REMARK   11  A    between atoms: C_24  and  C_32
REMARK   12  A    between atoms: C_27  and  O_63
REMARK   13  A    between atoms: C_28  and  O_62
REMARK   14  A    between atoms: O_29  and  C_30
REMARK   15  A    between atoms: C_32  and  O_64
REMARK   16  A    between atoms: O_33  and  C_42
REMARK   17  A    between atoms: O_34  and  C_44
REMARK   18  A    between atoms: O_35  and  C_45
REMARK   19  A    between atoms: O_36  and  C_41
REMARK   20  A    between atoms: O_38  and  C_43
REMARK                            x       y       z     vdW  Elec       q    Type
REMARK                         _______ _______ _______ _____ _____    ______ ____
ROOT
ATOM      1  C   UNL     1      -2.871  -1.357   0.000  0.00  0.00    +0.268 C 
ATOM      2  O   UNL     1      -3.603  -0.393   0.000  0.00  0.00    -0.316 OA
ATOM      3  C   UNL     1      -4.920  -0.393   0.000  0.00  0.00    +0.260 C 
ATOM      4  C   UNL     1      -5.653  -1.357   0.000  0.00  0.00    +0.249 C 
ATOM      5  C   UNL     1      -4.920  -2.199   0.000  0.00  0.00    +0.243 C 
ATOM      6  C   UNL     1      -3.603  -2.199   0.000  0.00  0.00    +0.217 C 
ENDROOT
BRANCH   3   7
ATOM      7  C   UNL     1      -4.920   0.176   0.000  0.00  0.00    +0.348 C 
ATOM      8  O   UNL     1      -4.234   0.584   0.000  0.00  0.00    -0.247 OA
BRANCH   7   9
ATOM      9  O   UNL     1      -5.490   0.468   0.000  0.00  0.00    -0.443 OA
ATOM     10  C   UNL     1      -5.490   1.547   0.000  0.00  0.00    +0.256 C 
ENDBRANCH   7   9
ENDBRANCH   3   7
BRANCH   5  11
ATOM     11  O   UNL     1      -4.920  -1.744   0.000  0.00  0.00    -0.446 OA
BRANCH  11  12
ATOM     12  C   UNL     1      -4.384  -1.547   0.000  0.00  0.00    +0.318 C 
ATOM     13  C   UNL     1      -4.255  -0.977   0.000  0.00  0.00    +0.121 C 
ATOM     14  O   UNL     1      -3.909  -1.873   0.000  0.00  0.00    -0.250 OA
ENDBRANCH  11  12
ENDBRANCH   5  11
BRANCH   4  15
ATOM     15  O   UNL     1      -5.673  -1.893   0.000  0.00  0.00    -0.445 OA
BRANCH  15  16
ATOM     16  C   UNL     1      -6.141  -2.138   0.000  0.00  0.00    +0.318 C 
ATOM     17  C   UNL     1      -6.141  -2.708   0.000  0.00  0.00    +0.121 C 
ATOM     18  O   UNL     1      -6.644  -1.873   0.000  0.00  0.00    -0.250 OA
ENDBRANCH  15  16
ENDBRANCH   4  15
BRANCH   6  19
ATOM     19  O   UNL     1      -3.569  -3.746   0.000  0.00  0.00    -0.321 OA
BRANCH  19  20
ATOM     20  C   UNL     1      -3.569  -5.429   0.000  0.00  0.00    +0.281 C 
ATOM     21  O   UNL     1      -4.269  -4.479   0.000  0.00  0.00    -0.315 OA
ATOM     22  C   UNL     1      -5.592  -4.479   0.000  0.00  0.00    +0.260 C 
ATOM     23  C   UNL     1      -6.372  -5.429   0.000  0.00  0.00    +0.250 C 
ATOM     24  C   UNL     1      -5.592  -6.352   0.000  0.00  0.00    +0.256 C 
ATOM     25  C   UNL     1      -4.269  -6.352   0.000  0.00  0.00    +0.268 C 
BRANCH  22  26
ATOM     26  C   UNL     1      -5.592  -3.895   0.000  0.00  0.00    +0.348 C 
ATOM     27  O   UNL     1      -4.886  -3.230   0.000  0.00  0.00    -0.247 OA
BRANCH  26  28
ATOM     28  O   UNL     1      -6.549  -3.278   0.000  0.00  0.00    -0.443 OA
ATOM     29  C   UNL     1      -7.770  -3.278   0.000  0.00  0.00    +0.256 C 
ENDBRANCH  26  28
ENDBRANCH  22  26
BRANCH  24  30
ATOM     30  O   UNL     1      -5.592  -5.863   0.000  0.00  0.00    -0.444 OA
BRANCH  30  31
ATOM     31  C   UNL     1      -5.049  -5.673   0.000  0.00  0.00    +0.318 C 
ATOM     32  C   UNL     1      -4.920  -5.103   0.000  0.00  0.00    +0.121 C 
ATOM     33  O   UNL     1      -4.560  -5.999   0.000  0.00  0.00    -0.250 OA
ENDBRANCH  30  31
ENDBRANCH  24  30
BRANCH  23  34
ATOM     34  O   UNL     1      -6.372  -6.013   0.000  0.00  0.00    -0.445 OA
BRANCH  34  35
ATOM     35  C   UNL     1      -6.840  -6.325   0.000  0.00  0.00    +0.318 C 
ATOM     36  C   UNL     1      -6.840  -6.895   0.000  0.00  0.00    +0.121 C 
ATOM     37  O   UNL     1      -7.377  -6.094   0.000  0.00  0.00    -0.250 OA
ENDBRANCH  34  35
ENDBRANCH  23  34
BRANCH  25  38
ATOM     38  O   UNL     1      -4.269  -6.813   0.000  0.00  0.00    -0.443 OA
BRANCH  38  39
ATOM     39  C   UNL     1      -3.794  -7.105   0.000  0.00  0.00    +0.318 C 
ATOM     40  C   UNL     1      -3.257  -6.840   0.000  0.00  0.00    +0.121 C 
ATOM     41  O   UNL     1      -3.794  -7.689   0.000  0.00  0.00    -0.250 OA
ENDBRANCH  38  39
ENDBRANCH  25  38
ENDBRANCH  19  20
ENDBRANCH   6  19
BRANCH   1  42
ATOM     42  O   UNL     1      -2.871  -0.020   0.000  0.00  0.00    -0.331 OA
BRANCH  42  64
ATOM     43  C   UNL     1       2.409   3.074   0.000  0.00  0.00    -0.042 C 
ATOM     44  C   UNL     1       3.515   3.841   0.000  0.00  0.00    +0.019 C 
ATOM     45  C   UNL     1       4.574   3.223   0.000  0.00  0.00    +0.003 C 
ATOM     46  C   UNL     1       5.795   2.491   0.000  0.00  0.00    +0.000 C 
ATOM     47  C   UNL     1       5.653   3.841   0.000  0.00  0.00    +0.001 C 
ATOM     48  C   UNL     1       5.653   5.062   0.000  0.00  0.00    +0.011 C 
ATOM     49  C   UNL     1       4.574   5.666   0.000  0.00  0.00    +0.090 C 
ATOM     50  C   UNL     1       3.515   6.352   0.000  0.00  0.00    +0.011 C 
ATOM     51  C   UNL     1       4.574   1.968   0.000  0.00  0.00    +0.001 C 
ATOM     52  C   UNL     1       3.515   1.385   0.000  0.00  0.00    +0.004 C 
ATOM     53  C   UNL     1       3.515   5.062   0.000  0.00  0.00    +0.015 C 
ATOM     54  C   UNL     1       1.581   3.610   0.000  0.00  0.00    +0.029 C 
ATOM     55  C   UNL     1       0.733   3.074   0.000  0.00  0.00    +0.172 C 
ATOM     56  O   UNL     1      -0.312   3.692   0.000  0.00  0.00    -0.291 OA
ATOM     57  C   UNL     1       0.733   2.083   0.000  0.00  0.00    +0.062 C 
ATOM     58  C   UNL     1       1.581   1.608   0.000  0.00  0.00    +0.010 C 
ATOM     59  C   UNL     1       1.581   2.551   0.000  0.00  0.00    +0.001 C 
ATOM     60  C   UNL     1       1.581   0.516   0.000  0.00  0.00    +0.001 C 
ATOM     61  C   UNL     1       0.733  -0.020   0.000  0.00  0.00    +0.000 C 
ATOM     62  C   UNL     1      -0.116   0.516   0.000  0.00  0.00    +0.003 C 
ATOM     63  C   UNL     1      -1.025  -0.020   0.000  0.00  0.00    +0.025 C 
ATOM     64  C   UNL     1      -1.893   0.516   0.000  0.00  0.00    +0.118 C 
ATOM     65  C   UNL     1      -1.893   1.608   0.000  0.00  0.00    +0.030 C 
ATOM     66  C   UNL     1      -1.025   2.083   0.000  0.00  0.00    +0.003 C 
ATOM     67  C   UNL     1      -1.629  -1.242   0.000  0.00  0.00    +0.002 C 
ATOM     68  C   UNL     1      -0.265  -1.045   0.000  0.00  0.00    +0.002 C 
ATOM     69  C   UNL     1      -0.116   1.608   0.000  0.00  0.00    +0.007 C 
ATOM     70  C   UNL     1      -0.116   2.619   0.000  0.00  0.00    +0.000 C 
ATOM     71  C   UNL     1       2.409   2.083   0.000  0.00  0.00    +0.016 C 
ATOM     72  C   UNL     1       2.443   0.923   0.000  0.00  0.00    +0.004 C 
BRANCH  49  73
ATOM     73  C   UNL     1       5.619   6.365   0.000  0.00  0.00    +0.316 C 
ATOM     74  O   UNL     1       5.619   7.689   0.000  0.00  0.00    -0.250 OA
BRANCH  73  75
ATOM     75  O   UNL     1       6.840   5.666   0.000  0.00  0.00    -0.444 OA
ATOM     76  C   UNL     1       7.770   6.270   0.000  0.00  0.00    +0.256 C 
ENDBRANCH  73  75
ENDBRANCH  49  73
ENDBRANCH  42  64
ENDBRANCH   1  42
TORSDOF 20
ENDMDL
MODEL      183
REMARK  Name = 1,4-dimethyl 2-{[10-({6-[(1,4-dimethoxy-1,4-dioxobutan-2-yl)carbamoyl]-3-({6-[(1,4-dimethoxy-1,4-dioxobutan-2-yl)carbamoyl]-3,4,5-trihydroxyoxan-2-yl}oxy)-4,5-dihydroxyoxan-2-yl}oxy)-2,4a,6a,6b,9,9,12 a-heptamethyl-13-oxo-1,2,3,4,4a,5,6,6a,6b,7,8,8a,9,10,11,12,12a,12b,13,14b-icosahydropicen-2-yl]formamido}butanedioate
REMARK  25 active torsions:
REMARK  status: ('A' for Active; 'I' for Inactive)
REMARK    1  A    between atoms: C_5  and  C_21
REMARK    2  A    between atoms: C_6  and  C_22
REMARK    3  A    between atoms: C_7  and  O_24
REMARK    4  A    between atoms: C_9  and  O_24
REMARK    5  A    between atoms: C_10  and  O_33
REMARK    6  A    between atoms: C_26  and  C_27
REMARK    7  A    between atoms: N_28  and  C_35
REMARK    8  A    between atoms: N_29  and  C_36
REMARK    9  A    between atoms: N_31  and  C_37
REMARK   10  A    between atoms: O_33  and  C_34
REMARK   11  A    between atoms: C_35  and  C_39
REMARK   12  A    between atoms: C_35  and  C_44
REMARK   13  A    between atoms: C_36  and  C_40
REMARK   14  A    between atoms: C_36  and  C_45
REMARK   15  A    between atoms: C_37  and  C_38
REMARK   16  A    between atoms: C_37  and  C_46
REMARK   17  A    between atoms: C_38  and  C_50
REMARK   18  A    between atoms: C_39  and  C_49
REMARK   19  A    between atoms: C_40  and  C_48
REMARK   20  A    between atoms: C_44  and  O_74
REMARK   21  A    between atoms: C_45  and  O_75
REMARK   22  A    between atoms: C_46  and  O_73
REMARK   23  A    between atoms: C_48  and  O_76
REMARK   24  A    between atoms: C_49  and  O_77
REMARK   25  A    between atoms: C_50  and  O_78
REMARK                            x       y       z     vdW  Elec       q    Type
REMARK                         _______ _______ _______ _____ _____    ______ ____
ROOT
ATOM      1  O   UNL     1      -3.113  -0.763   0.000  0.00  0.00    -0.331 OA
ENDROOT
BRANCH   1  23
ATOM      2  C   UNL     1       1.603   2.012   0.000  0.00  0.00    -0.042 C 
ATOM      3  C   UNL     1       2.573   2.679   0.000  0.00  0.00    +0.019 C 
ATOM      4  C   UNL     1       3.526   2.130   0.000  0.00  0.00    +0.003 C 
ATOM      5  C   UNL     1       4.598   1.489   0.000  0.00  0.00    +0.000 C 
ATOM      6  C   UNL     1       4.479   2.679   0.000  0.00  0.00    +0.001 C 
ATOM      7  C   UNL     1       4.479   3.775   0.000  0.00  0.00    +0.009 C 
ATOM      8  C   UNL     1       3.526   4.298   0.000  0.00  0.00    +0.071 C 
ATOM      9  C   UNL     1       2.573   4.906   0.000  0.00  0.00    +0.009 C 
ATOM     10  C   UNL     1       3.526   1.017   0.000  0.00  0.00    +0.001 C 
ATOM     11  C   UNL     1       2.573   0.477   0.000  0.00  0.00    +0.004 C 
ATOM     12  C   UNL     1       2.573   3.775   0.000  0.00  0.00    +0.013 C 
ATOM     13  C   UNL     1       0.852   2.476   0.000  0.00  0.00    +0.029 C 
ATOM     14  C   UNL     1       0.101   2.012   0.000  0.00  0.00    +0.172 C 
ATOM     15  O   UNL     1      -0.852   2.560   0.000  0.00  0.00    -0.291 OA
ATOM     16  C   UNL     1       0.101   1.118   0.000  0.00  0.00    +0.062 C 
ATOM     17  C   UNL     1       0.852   0.696   0.000  0.00  0.00    +0.010 C 
ATOM     18  C   UNL     1       0.852   1.548   0.000  0.00  0.00    +0.001 C 
ATOM     19  C   UNL     1       0.852  -0.274   0.000  0.00  0.00    +0.001 C 
ATOM     20  C   UNL     1       0.101  -0.763   0.000  0.00  0.00    +0.000 C 
ATOM     21  C   UNL     1      -0.666  -0.274   0.000  0.00  0.00    +0.003 C 
ATOM     22  C   UNL     1      -1.476  -0.763   0.000  0.00  0.00    +0.025 C 
ATOM     23  C   UNL     1      -2.244  -0.274   0.000  0.00  0.00    +0.118 C 
ATOM     24  C   UNL     1      -2.244   0.696   0.000  0.00  0.00    +0.030 C 
ATOM     25  C   UNL     1      -1.476   1.118   0.000  0.00  0.00    +0.003 C 
ATOM     26  C   UNL     1      -0.810  -1.675   0.000  0.00  0.00    +0.002 C 
ATOM     27  C   UNL     1      -2.025  -1.851   0.000  0.00  0.00    +0.002 C 
ATOM     28  C   UNL     1      -0.666   0.696   0.000  0.00  0.00    +0.007 C 
ATOM     29  C   UNL     1      -0.666   1.607   0.000  0.00  0.00    +0.000 C 
ATOM     30  C   UNL     1       1.603   1.118   0.000  0.00  0.00    +0.016 C 
ATOM     31  C   UNL     1       1.620   0.089   0.000  0.00  0.00    +0.004 C 
BRANCH   8  32
ATOM     32  C   UNL     1       4.438   4.931   0.000  0.00  0.00    +0.241 C 
ATOM     33  O   UNL     1       4.438   6.103   0.000  0.00  0.00    -0.273 OA
ATOM     34  N   UNL     1       5.897   4.197   0.000  0.00  0.00    -0.201 NA
BRANCH  34  35
ATOM     35  C   UNL     1       6.723   4.686   0.000  0.00  0.00    +0.225 C 
BRANCH  35  36
ATOM     36  C   UNL     1       6.217   5.538   0.000  0.00  0.00    +0.332 C 
ATOM     37  O   UNL     1       5.349   5.538   0.000  0.00  0.00    -0.249 OA
BRANCH  36  38
ATOM     38  O   UNL     1       6.707   6.365   0.000  0.00  0.00    -0.443 OA
ATOM     39  C   UNL     1       6.234   7.217   0.000  0.00  0.00    +0.256 C 
ENDBRANCH  36  38
ENDBRANCH  35  36
BRANCH  35  40
ATOM     40  C   UNL     1       7.230   3.834   0.000  0.00  0.00    +0.136 C 
BRANCH  40  41
ATOM     41  C   UNL     1       8.225   3.834   0.000  0.00  0.00    +0.319 C 
ATOM     42  O   UNL     1       8.706   4.686   0.000  0.00  0.00    -0.250 OA
BRANCH  41  43
ATOM     43  O   UNL     1       8.689   2.982   0.000  0.00  0.00    -0.444 OA
ATOM     44  C   UNL     1       9.676   2.965   0.000  0.00  0.00    +0.256 C 
ENDBRANCH  41  43
ENDBRANCH  40  41
ENDBRANCH  35  40
ENDBRANCH  34  35
ENDBRANCH   8  32
ENDBRANCH   1  23
BRANCH   1  45
ATOM     45  C   UNL     1      -3.113  -1.936   0.000  0.00  0.00    +0.266 C 
ATOM     46  O   UNL     1      -3.763  -1.109   0.000  0.00  0.00    -0.319 OA
ATOM     47  C   UNL     1      -4.961  -1.109   0.000  0.00  0.00    +0.228 C 
ATOM     48  C   UNL     1      -5.610  -1.936   0.000  0.00  0.00    +0.221 C 
ATOM     49  C   UNL     1      -4.961  -2.704   0.000  0.00  0.00    +0.217 C 
ATOM     50  O   UNL     1      -4.961  -1.877   0.000  0.00  0.00    -0.217 OA
ATOM     51  O   UNL     1      -5.585  -2.864   0.000  0.00  0.00    -0.217 OA
ATOM     52  C   UNL     1      -3.763  -2.704   0.000  0.00  0.00    +0.207 C 
BRANCH  47  53
ATOM     53  C   UNL     1      -4.961  -0.603   0.000  0.00  0.00    +0.271 C 
ATOM     54  O   UNL     1      -4.353  -0.232   0.000  0.00  0.00    -0.271 OA
ATOM     55  N   UNL     1      -5.467  -0.334   0.000  0.00  0.00    -0.199 NA
BRANCH  55  56
ATOM     56  C   UNL     1      -5.467   0.637   0.000  0.00  0.00    +0.225 C 
BRANCH  56  57
ATOM     57  C   UNL     1      -6.437   0.637   0.000  0.00  0.00    +0.332 C 
ATOM     58  O   UNL     1      -6.926  -0.215   0.000  0.00  0.00    -0.249 OA
BRANCH  57  59
ATOM     59  O   UNL     1      -6.943   1.464   0.000  0.00  0.00    -0.443 OA
ATOM     60  C   UNL     1      -7.939   1.489   0.000  0.00  0.00    +0.256 C 
ENDBRANCH  57  59
ENDBRANCH  56  57
BRANCH  56  61
ATOM     61  C   UNL     1      -5.467   1.607   0.000  0.00  0.00    +0.136 C 
BRANCH  61  62
ATOM     62  C   UNL     1      -4.598   2.071   0.000  0.00  0.00    +0.319 C 
ATOM     63  O   UNL     1      -3.746   1.548   0.000  0.00  0.00    -0.250 OA
BRANCH  62  64
ATOM     64  O   UNL     1      -4.598   3.067   0.000  0.00  0.00    -0.444 OA
ATOM     65  C   UNL     1      -5.467   3.590   0.000  0.00  0.00    +0.256 C 
ENDBRANCH  62  64
ENDBRANCH  61  62
ENDBRANCH  56  61
ENDBRANCH  55  56
ENDBRANCH  47  53
BRANCH  52  66
ATOM     66  O   UNL     1      -3.746  -4.079   0.000  0.00  0.00    -0.323 OA
BRANCH  66  67
ATOM     67  C   UNL     1      -3.746  -5.564   0.000  0.00  0.00    +0.270 C 
ATOM     68  C   UNL     1      -4.370  -6.390   0.000  0.00  0.00    +0.241 C 
ATOM     69  O   UNL     1      -4.370  -7.217   0.000  0.00  0.00    -0.215 OA
ATOM     70  C   UNL     1      -5.543  -6.390   0.000  0.00  0.00    +0.220 C 
ATOM     71  O   UNL     1      -5.543  -5.564   0.000  0.00  0.00    -0.217 OA
ATOM     72  C   UNL     1      -6.234  -5.564   0.000  0.00  0.00    +0.221 C 
ATOM     73  C   UNL     1      -5.543  -4.729   0.000  0.00  0.00    +0.228 C 
ATOM     74  O   UNL     1      -6.234  -6.609   0.000  0.00  0.00    -0.217 OA
ATOM     75  O   UNL     1      -4.370  -4.729   0.000  0.00  0.00    -0.319 OA
BRANCH  73  76
ATOM     76  C   UNL     1      -5.543  -4.205   0.000  0.00  0.00    +0.271 C 
ATOM     77  O   UNL     1      -4.918  -3.615   0.000  0.00  0.00    -0.271 OA
ATOM     78  N   UNL     1      -6.277  -3.817   0.000  0.00  0.00    -0.199 NA
BRANCH  78  79
ATOM     79  C   UNL     1      -7.264  -3.817   0.000  0.00  0.00    +0.225 C 
BRANCH  79  80
ATOM     80  C   UNL     1      -7.264  -2.830   0.000  0.00  0.00    +0.332 C 
ATOM     81  O   UNL     1      -6.420  -2.324   0.000  0.00  0.00    -0.249 OA
BRANCH  80  82
ATOM     82  O   UNL     1      -8.073  -2.324   0.000  0.00  0.00    -0.443 OA
ATOM     83  C   UNL     1      -8.951  -2.788   0.000  0.00  0.00    +0.256 C 
ENDBRANCH  80  82
ENDBRANCH  79  80
BRANCH  79  84
ATOM     84  C   UNL     1      -8.217  -3.817   0.000  0.00  0.00    +0.136 C 
BRANCH  84  85
ATOM     85  C   UNL     1      -8.706  -4.669   0.000  0.00  0.00    +0.319 C 
ATOM     86  O   UNL     1      -9.676  -4.669   0.000  0.00  0.00    -0.250 OA
BRANCH  85  87
ATOM     87  O   UNL     1      -8.217  -5.521   0.000  0.00  0.00    -0.444 OA
ATOM     88  C   UNL     1      -8.748  -6.373   0.000  0.00  0.00    +0.256 C 
ENDBRANCH  85  87
ENDBRANCH  84  85
ENDBRANCH  79  84
ENDBRANCH  78  79
ENDBRANCH  73  76
ENDBRANCH  66  67
ENDBRANCH  52  66
ENDBRANCH   1  45
TORSDOF 25
ENDMDL
MODEL      184
REMARK  Name = 6b-acetyl-4a,6a-dimethyl-2,3,4,4a,4b,5,6,6a,6b,7a,8,8a,8b,9-tetradecahydro-1H-naphtho[2',1':4,5]indeno[1,2-b]oxiren-2-yl acetate
REMARK  3 active torsions:
REMARK  status: ('A' for Active; 'I' for Inactive)
REMARK    1  A    between atoms: C_1  and  C_13
REMARK    2  A    between atoms: C_18  and  O_19
REMARK    3  A    between atoms: O_19  and  C_20
REMARK                            x       y       z     vdW  Elec       q    Type
REMARK                         _______ _______ _______ _____ _____    ______ ____
ROOT
ATOM      1  C   UNL     1       2.943   1.785   0.000  0.00  0.00    +0.168 C 
ATOM      2  C   UNL     1       3.542   1.029   0.000  0.00  0.00    +0.147 C 
ATOM      3  C   UNL     1       2.977   0.232   0.000  0.00  0.00    +0.033 C 
ATOM      4  C   UNL     1       2.023   0.490   0.000  0.00  0.00    +0.006 C 
ATOM      5  C   UNL     1       1.144   0.014   0.000  0.00  0.00    +0.005 C 
ATOM      6  C   UNL     1       0.259   0.490   0.000  0.00  0.00    +0.004 C 
ATOM      7  C   UNL     1       0.259   1.485   0.000  0.00  0.00    +0.000 C 
ATOM      8  C   UNL     1       1.144   2.009   0.000  0.00  0.00    +0.003 C 
ATOM      9  C   UNL     1      -0.572   0.014   0.000  0.00  0.00    +0.015 C 
ATOM     10  C   UNL     1      -0.572   0.967   0.000  0.00  0.00    +0.004 C 
ATOM     11  C   UNL     1      -1.458   0.490   0.000  0.00  0.00    +0.007 C 
ATOM     12  C   UNL     1      -2.357   0.014   0.000  0.00  0.00    +0.044 C 
ATOM     13  C   UNL     1      -2.357  -1.049   0.000  0.00  0.00    +0.173 C 
ATOM     14  C   UNL     1      -1.458  -1.519   0.000  0.00  0.00    +0.065 C 
ATOM     15  C   UNL     1      -0.572  -1.049   0.000  0.00  0.00    -0.046 C 
ATOM     16  C   UNL     1       0.259  -1.519   0.000  0.00  0.00    -0.035 C 
ATOM     17  C   UNL     1       1.144  -1.049   0.000  0.00  0.00    +0.025 C 
ATOM     18  O   UNL     1       4.053   1.846   0.000  0.00  0.00    -0.349 OA
ATOM     19  C   UNL     1       2.023   1.485   0.000  0.00  0.00    +0.032 C 
ATOM     20  C   UNL     1       2.023   2.520   0.000  0.00  0.00    +0.003 C 
ENDROOT
BRANCH   1  21
ATOM     21  C   UNL     1       2.943   2.684   0.000  0.00  0.00    +0.178 C 
ATOM     22  C   UNL     1       2.078   3.154   0.000  0.00  0.00    +0.075 C 
ATOM     23  O   UNL     1       3.842   3.120   0.000  0.00  0.00    -0.294 OA
ENDBRANCH   1  21
BRANCH  13  24
ATOM     24  O   UNL     1      -3.222  -1.567   0.000  0.00  0.00    -0.452 OA
BRANCH  24  25
ATOM     25  C   UNL     1      -3.222  -2.547   0.000  0.00  0.00    +0.317 C 
ATOM     26  C   UNL     1      -4.053  -3.024   0.000  0.00  0.00    +0.121 C 
ATOM     27  O   UNL     1      -2.405  -3.154   0.000  0.00  0.00    -0.250 OA
ENDBRANCH  24  25
ENDBRANCH  13  24
TORSDOF 3
ENDMDL
MODEL      185
REMARK  Name = 1-{7-hydroxy-2,9a,11a-trimethyl-3H,3aH,3bH,4H,6H,7H,8H,9H,9aH,9bH,10H,11H,11aH-cyclopenta[a]phenanthren-1-yl}ethan-1-one
REMARK  1 active torsions:
REMARK  status: ('A' for Active; 'I' for Inactive)
REMARK    1  A    between atoms: C_3  and  C_15
REMARK                            x       y       z     vdW  Elec       q    Type
REMARK                         _______ _______ _______ _____ _____    ______ ____
ROOT
ATOM      1  C   UNL     1       1.371   0.693   0.000  0.00  0.00    +0.021 C 
ATOM      2  C   UNL     1       1.371   1.730   0.000  0.00  0.00    +0.004 C 
ATOM      3  C   UNL     1       0.491   1.218   0.000  0.00  0.00    +0.004 C 
ATOM      4  C   UNL     1      -0.396   0.693   0.000  0.00  0.00    +0.001 C 
ATOM      5  C   UNL     1      -0.396  -0.303   0.000  0.00  0.00    +0.004 C 
ATOM      6  C   UNL     1       0.491  -0.781   0.000  0.00  0.00    +0.005 C 
ATOM      7  C   UNL     1       0.491  -1.846   0.000  0.00  0.00    +0.025 C 
ATOM      8  C   UNL     1      -0.396  -2.316   0.000  0.00  0.00    -0.035 C 
ATOM      9  C   UNL     1      -1.228  -1.846   0.000  0.00  0.00    -0.047 C 
ATOM     10  C   UNL     1      -2.115  -2.316   0.000  0.00  0.00    +0.055 C 
ATOM     11  C   UNL     1      -3.016  -1.846   0.000  0.00  0.00    +0.156 C 
ATOM     12  O   UNL     1      -3.882  -2.364   0.000  0.00  0.00    -0.223 OA
ATOM     13  C   UNL     1      -3.016  -0.781   0.000  0.00  0.00    +0.034 C 
ATOM     14  C   UNL     1      -2.115  -0.303   0.000  0.00  0.00    +0.006 C 
ATOM     15  C   UNL     1      -1.228  -0.781   0.000  0.00  0.00    +0.015 C 
ATOM     16  C   UNL     1      -1.228   0.174   0.000  0.00  0.00    +0.004 C 
ATOM     17  C   UNL     1       2.292   0.993   0.000  0.00  0.00    +0.004 C 
ATOM     18  C   UNL     1       2.893   0.235   0.000  0.00  0.00    -0.045 C 
ATOM     19  C   UNL     1       2.327  -0.563   0.000  0.00  0.00    +0.022 C 
ATOM     20  C   UNL     1       3.882   0.235   0.000  0.00  0.00    +0.026 C 
ATOM     21  C   UNL     1       1.371  -0.303   0.000  0.00  0.00    +0.008 C 
ENDROOT
BRANCH  17  22
ATOM     22  C   UNL     1       2.292   1.893   0.000  0.00  0.00    +0.169 C 
ATOM     23  C   UNL     1       1.426   2.364   0.000  0.00  0.00    +0.077 C 
ATOM     24  O   UNL     1       3.193   2.330   0.000  0.00  0.00    -0.292 OA
ENDBRANCH  17  22
TORSDOF 1
ENDMDL
MODEL      186
REMARK  Name = 6b-acetyl-4a,6a-dimethyl-1H,2H,3H,4H,4aH,4bH,5H,6H,6aH,6bH,7H,8H,9H,10H,10aH,11H,11aH,11bH,12H-indeno[2,1-a]phenanthren-2-yl acetate
REMARK  3 active torsions:
REMARK  status: ('A' for Active; 'I' for Inactive)
REMARK    1  A    between atoms: C_3  and  C_15
REMARK    2  A    between atoms: C_17  and  O_18
REMARK    3  A    between atoms: O_18  and  C_19
REMARK                            x       y       z     vdW  Elec       q    Type
REMARK                         _______ _______ _______ _____ _____    ______ ____
ROOT
ATOM      1  C   UNL     1       1.584   1.123   0.000  0.00  0.00    +0.006 C 
ATOM      2  C   UNL     1       1.584   2.147   0.000  0.00  0.00    +0.000 C 
ATOM      3  C   UNL     1       0.715   1.642   0.000  0.00  0.00    +0.000 C 
ATOM      4  C   UNL     1      -0.162   1.123   0.000  0.00  0.00    +0.000 C 
ATOM      5  C   UNL     1      -0.162   0.138   0.000  0.00  0.00    +0.004 C 
ATOM      6  C   UNL     1       0.715  -0.334   0.000  0.00  0.00    +0.005 C 
ATOM      7  C   UNL     1       0.715  -1.385   0.000  0.00  0.00    +0.025 C 
ATOM      8  C   UNL     1      -0.162  -1.851   0.000  0.00  0.00    -0.035 C 
ATOM      9  C   UNL     1      -0.984  -1.385   0.000  0.00  0.00    -0.046 C 
ATOM     10  C   UNL     1      -1.861  -1.851   0.000  0.00  0.00    +0.065 C 
ATOM     11  C   UNL     1      -2.751  -1.385   0.000  0.00  0.00    +0.173 C 
ATOM     12  C   UNL     1      -2.751  -0.334   0.000  0.00  0.00    +0.044 C 
ATOM     13  C   UNL     1      -1.861   0.138   0.000  0.00  0.00    +0.007 C 
ATOM     14  C   UNL     1      -0.984  -0.334   0.000  0.00  0.00    +0.015 C 
ATOM     15  C   UNL     1      -0.984   0.610   0.000  0.00  0.00    +0.004 C 
ATOM     16  C   UNL     1       2.494   1.419   0.000  0.00  0.00    +0.051 C 
ATOM     17  C   UNL     1       2.831   2.336   0.000  0.00  0.00    +0.007 C 
ATOM     18  C   UNL     1       3.802   2.471   0.000  0.00  0.00    +0.000 C 
ATOM     19  C   UNL     1       4.416   1.722   0.000  0.00  0.00    +0.000 C 
ATOM     20  C   UNL     1       4.079   0.819   0.000  0.00  0.00    +0.000 C 
ATOM     21  C   UNL     1       3.088   0.671   0.000  0.00  0.00    +0.007 C 
ATOM     22  C   UNL     1       2.528  -0.118   0.000  0.00  0.00    +0.000 C 
ATOM     23  C   UNL     1       1.584   0.138   0.000  0.00  0.00    +0.001 C 
ENDROOT
BRANCH  16  24
ATOM     24  C   UNL     1       1.989   2.727   0.000  0.00  0.00    +0.150 C 
ATOM     25  C   UNL     1       0.991   2.741   0.000  0.00  0.00    +0.072 C 
ATOM     26  O   UNL     1       2.589   3.455   0.000  0.00  0.00    -0.296 OA
ENDBRANCH  16  24
BRANCH  11  27
ATOM     27  O   UNL     1      -3.607  -1.898   0.000  0.00  0.00    -0.452 OA
BRANCH  27  28
ATOM     28  C   UNL     1      -3.607  -2.869   0.000  0.00  0.00    +0.317 C 
ATOM     29  C   UNL     1      -4.416  -3.340   0.000  0.00  0.00    +0.121 C 
ATOM     30  O   UNL     1      -2.784  -3.455   0.000  0.00  0.00    -0.250 OA
ENDBRANCH  27  28
ENDBRANCH  11  27
TORSDOF 3
ENDMDL
MODEL      187
REMARK  Name = (13aR)-6b-acetyl-13a-hydroxy-4a,6a,13-trimethylicosahydro-2H-indeno[2,1-a]phenanthren-2-one
REMARK  1 active torsions:
REMARK  status: ('A' for Active; 'I' for Inactive)
REMARK    1  A    between atoms: C_5  and  C_16
REMARK                            x       y       z     vdW  Elec       q    Type
REMARK                         _______ _______ _______ _____ _____    ______ ____
ROOT
ATOM      1  C   UNL     1       1.179   0.815   0.000  0.00  0.00    +0.006 C 
ATOM      2  C   UNL     1       1.179   1.839   0.000  0.00  0.00    +0.000 C 
ATOM      3  C   UNL     1       0.310   1.334   0.000  0.00  0.00    +0.000 C 
ATOM      4  C   UNL     1      -0.566   0.815   0.000  0.00  0.00    +0.000 C 
ATOM      5  C   UNL     1      -0.566  -0.168   0.000  0.00  0.00    +0.002 C 
ATOM      6  C   UNL     1       0.310  -0.640   0.000  0.00  0.00    +0.000 C 
ATOM      7  C   UNL     1       0.310  -1.691   0.000  0.00  0.00    +0.002 C 
ATOM      8  C   UNL     1      -0.566  -2.156   0.000  0.00  0.00    +0.028 C 
ATOM      9  C   UNL     1      -1.388  -1.691   0.000  0.00  0.00    +0.133 C 
ATOM     10  O   UNL     1      -1.408  -2.641   0.000  0.00  0.00    -0.225 OA
ATOM     11  C   UNL     1      -2.264  -2.156   0.000  0.00  0.00    +0.095 C 
ATOM     12  C   UNL     1      -3.153  -1.691   0.000  0.00  0.00    +0.153 C 
ATOM     13  O   UNL     1      -4.008  -2.203   0.000  0.00  0.00    -0.296 OA
ATOM     14  C   UNL     1      -3.153  -0.640   0.000  0.00  0.00    +0.065 C 
ATOM     15  C   UNL     1      -2.264  -0.168   0.000  0.00  0.00    +0.010 C 
ATOM     16  C   UNL     1      -0.566  -3.146   0.000  0.00  0.00    +0.003 C 
ATOM     17  C   UNL     1      -1.388  -0.640   0.000  0.00  0.00    +0.027 C 
ATOM     18  C   UNL     1      -1.388   0.303   0.000  0.00  0.00    +0.002 C 
ATOM     19  C   UNL     1       2.088   1.111   0.000  0.00  0.00    +0.051 C 
ATOM     20  C   UNL     1       2.425   2.028   0.000  0.00  0.00    +0.007 C 
ATOM     21  C   UNL     1       3.395   2.163   0.000  0.00  0.00    +0.000 C 
ATOM     22  C   UNL     1       4.008   1.415   0.000  0.00  0.00    +0.000 C 
ATOM     23  C   UNL     1       3.671   0.512   0.000  0.00  0.00    +0.000 C 
ATOM     24  C   UNL     1       2.681   0.364   0.000  0.00  0.00    +0.007 C 
ATOM     25  C   UNL     1       2.122  -0.424   0.000  0.00  0.00    +0.000 C 
ATOM     26  C   UNL     1       1.179  -0.168   0.000  0.00  0.00    +0.000 C 
ENDROOT
BRANCH  19  27
ATOM     27  C   UNL     1       1.583   2.418   0.000  0.00  0.00    +0.150 C 
ATOM     28  C   UNL     1       0.586   2.432   0.000  0.00  0.00    +0.072 C 
ATOM     29  O   UNL     1       2.183   3.146   0.000  0.00  0.00    -0.296 OA
ENDBRANCH  19  27
TORSDOF 1
ENDMDL
MODEL      188
REMARK  Name = 4,5-dihydroxy-2-methyl-6-[(3,4,5-trihydroxy-6-{[5-hydroxy-6-methoxy-2-(4-methoxyphenyl)-4-oxo-4H-chromen-7-yl]oxy}oxan-2-yl)methoxy]oxan-3-yl acetate
REMARK  10 active torsions:
REMARK  status: ('A' for Active; 'I' for Inactive)
REMARK    1  A    between atoms: C_2  and  O_22
REMARK    2  A    between atoms: C_9  and  C_26
REMARK    3  A    between atoms: C_11  and  O_24
REMARK    4  A    between atoms: C_14  and  O_22
REMARK    5  A    between atoms: C_15  and  O_39
REMARK    6  A    between atoms: C_16  and  O_25
REMARK    7  A    between atoms: C_20  and  C_29
REMARK    8  A    between atoms: O_24  and  C_27
REMARK    9  A    between atoms: O_25  and  C_29
REMARK   10  A    between atoms: C_40  and  O_43
REMARK                            x       y       z     vdW  Elec       q    Type
REMARK                         _______ _______ _______ _____ _____    ______ ____
ROOT
ATOM      1  C   UNL     1       0.359  -0.810   0.000  0.00  0.00    +0.322 C 
ATOM      2  O   UNL     1      -0.393   0.216   0.000  0.00  0.00    -0.316 OA
ATOM      3  C   UNL     1      -1.816   0.216   0.000  0.00  0.00    +0.181 C 
ATOM      4  C   UNL     1      -2.584  -0.810   0.000  0.00  0.00    +0.214 C 
ATOM      5  C   UNL     1      -1.816  -1.763   0.000  0.00  0.00    +0.221 C 
ATOM      6  O   UNL     1      -1.833  -0.782   0.000  0.00  0.00    -0.217 OA
ATOM      7  O   UNL     1      -2.584  -1.802   0.000  0.00  0.00    -0.218 OA
ATOM      8  C   UNL     1      -0.393  -1.763   0.000  0.00  0.00    +0.254 C 
ATOM      9  O   UNL     1      -0.393  -2.542   0.000  0.00  0.00    -0.213 OA
ENDROOT
BRANCH   1  10
ATOM     10  O   UNL     1       0.359  -0.120   0.000  0.00  0.00    -0.447 OA
BRANCH  10  14
ATOM     11  C   UNL     1       2.999  -1.657   0.000  0.00  0.00    +0.116 A 
ATOM     12  C   UNL     1       2.999  -0.782   0.000  0.00  0.00    +0.155 A 
ATOM     13  C   UNL     1       2.231  -0.322   0.000  0.00  0.00    +0.078 A 
ATOM     14  C   UNL     1       1.463  -0.782   0.000  0.00  0.00    +0.181 A 
ATOM     15  C   UNL     1       1.463  -1.657   0.000  0.00  0.00    +0.212 A 
ATOM     16  O   UNL     1       3.767  -0.322   0.000  0.00  0.00    -0.453 OA
ATOM     17  C   UNL     1       4.546  -0.782   0.000  0.00  0.00    +0.148 A 
ATOM     18  C   UNL     1       4.546  -1.657   0.000  0.00  0.00    +0.080 A 
ATOM     19  C   UNL     1       2.231  -2.110   0.000  0.00  0.00    +0.238 A 
ATOM     20  O   UNL     1       2.231  -2.985   0.000  0.00  0.00    -0.283 OA
ATOM     21  C   UNL     1       3.767  -2.110   0.000  0.00  0.00    +0.205 A 
ATOM     22  O   UNL     1       3.767  -2.985   0.000  0.00  0.00    -0.286 OA
BRANCH  17  23
ATOM     23  C   UNL     1       5.286  -0.322   0.000  0.00  0.00    +0.035 A 
ATOM     24  C   UNL     1       5.286   0.564   0.000  0.00  0.00    +0.006 A 
ATOM     25  C   UNL     1       6.054   1.006   0.000  0.00  0.00    +0.037 A 
ATOM     26  C   UNL     1       6.833   0.564   0.000  0.00  0.00    +0.139 A 
ATOM     27  C   UNL     1       6.833  -0.322   0.000  0.00  0.00    +0.037 A 
ATOM     28  C   UNL     1       6.054  -0.782   0.000  0.00  0.00    +0.006 A 
BRANCH  26  29
ATOM     29  O   UNL     1       7.585   1.006   0.000  0.00  0.00    -0.471 OA
ATOM     30  C   UNL     1       7.585   1.898   0.000  0.00  0.00    +0.252 C 
ENDBRANCH  26  29
ENDBRANCH  17  23
BRANCH  15  31
ATOM     31  O   UNL     1       0.695  -2.088   0.000  0.00  0.00    -0.465 OA
ATOM     32  C   UNL     1       0.695  -2.974   0.000  0.00  0.00    +0.253 C 
ENDBRANCH  15  31
ENDBRANCH  10  14
ENDBRANCH   1  10
BRANCH   3  33
ATOM     33  C   UNL     1      -1.816   0.849   0.000  0.00  0.00    +0.177 C 
BRANCH  33  34
ATOM     34  O   UNL     1      -2.775   1.275   0.000  0.00  0.00    -0.326 OA
BRANCH  34  35
ATOM     35  C   UNL     1      -2.775   0.603   0.000  0.00  0.00    +0.270 C 
ATOM     36  O   UNL     1      -3.543   1.629   0.000  0.00  0.00    -0.327 OA
ATOM     37  C   UNL     1      -4.984   1.629   0.000  0.00  0.00    +0.160 C 
ATOM     38  C   UNL     1      -4.967   0.687   0.000  0.00  0.00    +0.036 C 
ATOM     39  C   UNL     1      -5.746   0.603   0.000  0.00  0.00    +0.228 C 
ATOM     40  C   UNL     1      -4.984  -0.378   0.000  0.00  0.00    +0.229 C 
ATOM     41  O   UNL     1      -4.995  -1.331   0.000  0.00  0.00    -0.216 OA
ATOM     42  C   UNL     1      -3.543  -0.378   0.000  0.00  0.00    +0.242 C 
ATOM     43  O   UNL     1      -3.543  -1.387   0.000  0.00  0.00    -0.215 OA
BRANCH  39  44
ATOM     44  O   UNL     1      -5.746   1.505   0.000  0.00  0.00    -0.447 OA
BRANCH  44  45
ATOM     45  C   UNL     1      -6.620   2.005   0.000  0.00  0.00    +0.318 C 
ATOM     46  C   UNL     1      -6.609   2.985   0.000  0.00  0.00    +0.121 C 
ATOM     47  O   UNL     1      -7.585   1.572   0.000  0.00  0.00    -0.250 OA
ENDBRANCH  44  45
ENDBRANCH  39  44
ENDBRANCH  34  35
ENDBRANCH  33  34
ENDBRANCH   3  33
TORSDOF 10
ENDMDL
MODEL      189
REMARK  Name = 2-(3,4-dihydroxyphenyl)-5,7-dihydroxy-3-[(3,4,5-trihydroxy-6-{[(3,4,5-trihydroxy-6-methyloxan-2-yl)oxy]methyl}oxan-2-yl)oxy]-4H-chromen-4-one
REMARK  6 active torsions:
REMARK  status: ('A' for Active; 'I' for Inactive)
REMARK    1  A    between atoms: C_1  and  O_10
REMARK    2  A    between atoms: C_2  and  C_20
REMARK    3  A    between atoms: C_5  and  O_10
REMARK    4  A    between atoms: C_14  and  O_26
REMARK    5  A    between atoms: C_18  and  C_29
REMARK    6  A    between atoms: O_26  and  C_29
REMARK                            x       y       z     vdW  Elec       q    Type
REMARK                         _______ _______ _______ _____ _____    ______ ____
ROOT
ATOM      1  O   UNL     1       1.617   0.843   0.000  0.00  0.00    -0.444 OA
ENDROOT
BRANCH   1   2
ATOM      2  C   UNL     1       0.770   1.312   0.000  0.00  0.00    +0.214 A 
ATOM      3  C   UNL     1      -0.052   0.813   0.000  0.00  0.00    +0.238 A 
ATOM      4  O   UNL     1      -0.052  -0.125   0.000  0.00  0.00    -0.283 OA
ATOM      5  C   UNL     1      -0.868   1.282   0.000  0.00  0.00    +0.116 A 
ATOM      6  C   UNL     1      -1.690   0.813   0.000  0.00  0.00    +0.205 A 
ATOM      7  O   UNL     1      -1.690  -0.125   0.000  0.00  0.00    -0.286 OA
ATOM      8  C   UNL     1      -2.506   1.312   0.000  0.00  0.00    +0.084 A 
ATOM      9  C   UNL     1      -2.506   2.213   0.000  0.00  0.00    +0.202 A 
ATOM     10  C   UNL     1      -1.690   2.713   0.000  0.00  0.00    +0.080 A 
ATOM     11  O   UNL     1      -3.352   2.682   0.000  0.00  0.00    -0.286 OA
ATOM     12  C   UNL     1      -0.868   2.244   0.000  0.00  0.00    +0.155 A 
ATOM     13  O   UNL     1      -0.052   2.713   0.000  0.00  0.00    -0.450 OA
ATOM     14  C   UNL     1       0.770   2.213   0.000  0.00  0.00    +0.182 A 
BRANCH  14  15
ATOM     15  C   UNL     1       1.586   2.682   0.000  0.00  0.00    +0.041 A 
ATOM     16  C   UNL     1       1.586   3.620   0.000  0.00  0.00    +0.007 A 
ATOM     17  C   UNL     1       2.402   4.088   0.000  0.00  0.00    +0.045 A 
ATOM     18  C   UNL     1       3.224   3.620   0.000  0.00  0.00    +0.234 A 
ATOM     19  C   UNL     1       3.224   2.682   0.000  0.00  0.00    +0.234 A 
ATOM     20  O   UNL     1       4.070   2.189   0.000  0.00  0.00    -0.283 OA
ATOM     21  O   UNL     1       4.040   4.113   0.000  0.00  0.00    -0.283 OA
ATOM     22  C   UNL     1       2.402   2.213   0.000  0.00  0.00    +0.049 A 
ENDBRANCH  14  15
ENDBRANCH   1   2
BRANCH   1  23
ATOM     23  C   UNL     1       1.617  -2.682   0.000  0.00  0.00    +0.322 C 
ATOM     24  O   UNL     1       1.014  -1.903   0.000  0.00  0.00    -0.316 OA
ATOM     25  C   UNL     1      -0.052  -1.903   0.000  0.00  0.00    +0.181 C 
ATOM     26  C   UNL     1      -0.648  -2.682   0.000  0.00  0.00    +0.214 C 
ATOM     27  C   UNL     1      -0.052  -3.394   0.000  0.00  0.00    +0.221 C 
ATOM     28  O   UNL     1      -0.052  -2.682   0.000  0.00  0.00    -0.217 OA
ATOM     29  O   UNL     1      -0.648  -3.486   0.000  0.00  0.00    -0.218 OA
ATOM     30  C   UNL     1       1.014  -3.394   0.000  0.00  0.00    +0.254 C 
ATOM     31  O   UNL     1       1.014  -4.113   0.000  0.00  0.00    -0.213 OA
BRANCH  25  32
ATOM     32  C   UNL     1      -0.052  -1.202   0.000  0.00  0.00    +0.177 C 
BRANCH  32  33
ATOM     33  O   UNL     1      -1.817  -1.202   0.000  0.00  0.00    -0.326 OA
BRANCH  33  34
ATOM     34  C   UNL     1      -1.817  -1.964   0.000  0.00  0.00    +0.269 C 
ATOM     35  O   UNL     1      -2.372  -1.172   0.000  0.00  0.00    -0.328 OA
ATOM     36  C   UNL     1      -3.486  -1.172   0.000  0.00  0.00    +0.151 C 
ATOM     37  C   UNL     1      -3.486  -2.049   0.000  0.00  0.00    +0.035 C 
ATOM     38  C   UNL     1      -4.070  -1.964   0.000  0.00  0.00    +0.212 C 
ATOM     39  C   UNL     1      -3.486  -2.682   0.000  0.00  0.00    +0.220 C 
ATOM     40  O   UNL     1      -3.486  -3.425   0.000  0.00  0.00    -0.217 OA
ATOM     41  O   UNL     1      -4.070  -1.026   0.000  0.00  0.00    -0.218 OA
ATOM     42  C   UNL     1      -2.372  -2.682   0.000  0.00  0.00    +0.241 C 
ATOM     43  O   UNL     1      -2.372  -3.455   0.000  0.00  0.00    -0.215 OA
ENDBRANCH  33  34
ENDBRANCH  32  33
ENDBRANCH  25  32
ENDBRANCH   1  23
TORSDOF 6
ENDMDL
MODEL      190
REMARK  Name = 3,5-dihydroxy-2-(4-hydroxyphenyl)-8-(3-methylbut-2-en-1-yl)-7-{[3,4,5-trihydroxy-6-(hydroxymethyl)oxan-2-yl]oxy}-3,4-dihydro-2H-1-benzopyran-4-one
REMARK  6 active torsions:
REMARK  status: ('A' for Active; 'I' for Inactive)
REMARK    1  A    between atoms: C_4  and  O_16
REMARK    2  A    between atoms: C_8  and  C_18
REMARK    3  A    between atoms: C_10  and  C_20
REMARK    4  A    between atoms: C_11  and  O_16
REMARK    5  A    between atoms: C_15  and  C_33
REMARK    6  A    between atoms: C_18  and  C_19
REMARK                            x       y       z     vdW  Elec       q    Type
REMARK                         _______ _______ _______ _____ _____    ______ ____
ROOT
ATOM      1  C   UNL     1       1.847  -1.553   0.000  0.00  0.00    +0.110 A 
ATOM      2  C   UNL     1       1.123  -1.958   0.000  0.00  0.00    +0.204 A 
ATOM      3  O   UNL     1       1.123  -2.787   0.000  0.00  0.00    -0.286 OA
ATOM      4  C   UNL     1       0.424  -1.553   0.000  0.00  0.00    +0.079 A 
ATOM      5  C   UNL     1       0.424  -0.719   0.000  0.00  0.00    +0.144 A 
ATOM      6  C   UNL     1       1.123  -0.299   0.000  0.00  0.00    +0.050 A 
ATOM      7  C   UNL     1       2.551  -1.958   0.000  0.00  0.00    +0.213 C 
ATOM      8  O   UNL     1       2.551  -2.787   0.000  0.00  0.00    -0.288 OA
ATOM      9  C   UNL     1       3.260  -1.553   0.000  0.00  0.00    +0.257 C 
ATOM     10  O   UNL     1       4.016  -2.021   0.000  0.00  0.00    -0.210 OA
ATOM     11  C   UNL     1       3.260  -0.719   0.000  0.00  0.00    +0.226 C 
ATOM     12  O   UNL     1       2.551  -0.299   0.000  0.00  0.00    -0.472 OA
ATOM     13  C   UNL     1       1.847  -0.719   0.000  0.00  0.00    +0.144 A 
ENDROOT
BRANCH  11  14
ATOM     14  C   UNL     1       3.973  -0.299   0.000  0.00  0.00    +0.020 A 
ATOM     15  C   UNL     1       4.682  -0.719   0.000  0.00  0.00    +0.003 A 
ATOM     16  C   UNL     1       5.386  -0.299   0.000  0.00  0.00    +0.042 A 
ATOM     17  C   UNL     1       5.386   0.530   0.000  0.00  0.00    +0.196 A 
ATOM     18  C   UNL     1       4.682   0.950   0.000  0.00  0.00    +0.042 A 
ATOM     19  O   UNL     1       6.114   0.960   0.000  0.00  0.00    -0.287 OA
ATOM     20  C   UNL     1       3.973   0.530   0.000  0.00  0.00    +0.003 A 
ENDBRANCH  11  14
BRANCH   6  21
ATOM     21  C   UNL     1       1.123   0.530   0.000  0.00  0.00    +0.058 C 
BRANCH  21  22
ATOM     22  C   UNL     1       1.856   1.205   0.000  0.00  0.00    -0.030 C 
ATOM     23  C   UNL     1       1.659   2.146   0.000  0.00  0.00    -0.048 C 
ATOM     24  C   UNL     1       2.367   2.787   0.000  0.00  0.00    +0.026 C 
ATOM     25  C   UNL     1       0.747   2.420   0.000  0.00  0.00    +0.026 C 
ENDBRANCH  21  22
ENDBRANCH   6  21
BRANCH   5  26
ATOM     26  O   UNL     1      -0.309  -0.280   0.000  0.00  0.00    -0.451 OA
BRANCH  26  27
ATOM     27  C   UNL     1      -1.249  -0.834   0.000  0.00  0.00    +0.322 C 
ATOM     28  O   UNL     1      -2.309   0.487   0.000  0.00  0.00    -0.316 OA
ATOM     29  C   UNL     1      -3.954  -0.053   0.000  0.00  0.00    +0.185 C 
ATOM     30  C   UNL     1      -5.212   0.554   0.000  0.00  0.00    +0.215 C 
ATOM     31  C   UNL     1      -4.214  -1.109   0.000  0.00  0.00    +0.221 C 
ATOM     32  O   UNL     1      -5.082  -2.093   0.000  0.00  0.00    -0.217 OA
ATOM     33  O   UNL     1      -6.114  -0.241   0.000  0.00  0.00    -0.218 OA
ATOM     34  C   UNL     1      -2.565  -0.497   0.000  0.00  0.00    +0.254 C 
ATOM     35  O   UNL     1      -2.565  -1.529   0.000  0.00  0.00    -0.213 OA
BRANCH  29  36
ATOM     36  C   UNL     1      -3.954   0.762   0.000  0.00  0.00    +0.214 C 
ATOM     37  O   UNL     1      -3.274   1.335   0.000  0.00  0.00    -0.218 OA
ENDBRANCH  29  36
ENDBRANCH  26  27
ENDBRANCH   5  26
TORSDOF 6
ENDMDL
MODEL      191
REMARK  Name = 2,2-dimethyl-3-{[(2Z)-2-methylbut-2-enoyl]oxy}-8-oxo-2H,3H,4H,8H-pyrano[3,2-g]chromen-4-yl (2Z)-2-methylbut-2-enoate
REMARK  6 active torsions:
REMARK  status: ('A' for Active; 'I' for Inactive)
REMARK    1  A    between atoms: C_1  and  O_7
REMARK    2  A    between atoms: C_3  and  O_8
REMARK    3  A    between atoms: O_7  and  C_9
REMARK    4  A    between atoms: O_8  and  C_10
REMARK    5  A    between atoms: C_9  and  C_19
REMARK    6  A    between atoms: C_10  and  C_18
REMARK                            x       y       z     vdW  Elec       q    Type
REMARK                         _______ _______ _______ _____ _____    ______ ____
ROOT
ATOM      1  C   UNL     1      -0.888  -0.783   0.000  0.00  0.00    +0.238 C 
ATOM      2  C   UNL     1      -1.747  -1.285   0.000  0.00  0.00    +0.249 C 
ATOM      3  C   UNL     1      -1.747  -2.297   0.000  0.00  0.00    +0.174 C 
ATOM      4  C   UNL     1      -2.603  -2.799   0.000  0.00  0.00    +0.048 C 
ATOM      5  C   UNL     1      -1.729  -3.202   0.000  0.00  0.00    +0.048 C 
ATOM      6  O   UNL     1      -0.888  -2.799   0.000  0.00  0.00    -0.479 OA
ATOM      7  C   UNL     1      -0.021  -2.297   0.000  0.00  0.00    +0.141 A 
ATOM      8  C   UNL     1       0.865  -2.784   0.000  0.00  0.00    +0.074 A 
ATOM      9  C   UNL     1       1.759  -2.297   0.000  0.00  0.00    +0.152 A 
ATOM     10  O   UNL     1       2.645  -2.784   0.000  0.00  0.00    -0.421 OA
ATOM     11  C   UNL     1       3.493  -2.297   0.000  0.00  0.00    +0.346 A 
ATOM     12  O   UNL     1       4.349  -2.784   0.000  0.00  0.00    -0.244 OA
ATOM     13  C   UNL     1       3.493  -1.285   0.000  0.00  0.00    +0.082 A 
ATOM     14  C   UNL     1       2.645  -0.783   0.000  0.00  0.00    +0.010 A 
ATOM     15  C   UNL     1       1.759  -1.285   0.000  0.00  0.00    +0.035 A 
ATOM     16  C   UNL     1       0.865  -0.783   0.000  0.00  0.00    +0.005 A 
ATOM     17  C   UNL     1      -0.021  -1.285   0.000  0.00  0.00    +0.055 A 
ENDROOT
BRANCH   1  18
ATOM     18  O   UNL     1      -0.888   0.213   0.000  0.00  0.00    -0.441 OA
BRANCH  18  19
ATOM     19  C   UNL     1      -0.013   0.730   0.000  0.00  0.00    +0.337 C 
ATOM     20  O   UNL     1       0.854   0.247   0.000  0.00  0.00    -0.245 OA
BRANCH  19  21
ATOM     21  C   UNL     1      -0.013   1.727   0.000  0.00  0.00    +0.042 C 
ATOM     22  C   UNL     1      -0.880   2.202   0.000  0.00  0.00    +0.037 C 
ATOM     23  C   UNL     1       0.865   2.209   0.000  0.00  0.00    -0.006 C 
ATOM     24  C   UNL     1       1.721   1.700   0.000  0.00  0.00    +0.022 C 
ENDBRANCH  19  21
ENDBRANCH  18  19
ENDBRANCH   1  18
BRANCH   2  25
ATOM     25  O   UNL     1      -2.603  -0.783   0.000  0.00  0.00    -0.442 OA
BRANCH  25  26
ATOM     26  C   UNL     1      -2.603   0.228   0.000  0.00  0.00    +0.336 C 
ATOM     27  O   UNL     1      -1.729   0.730   0.000  0.00  0.00    -0.245 OA
BRANCH  26  28
ATOM     28  C   UNL     1      -3.470   0.730   0.000  0.00  0.00    +0.042 C 
ATOM     29  C   UNL     1      -4.311   0.213   0.000  0.00  0.00    +0.037 C 
ATOM     30  C   UNL     1      -3.470   1.746   0.000  0.00  0.00    -0.006 C 
ATOM     31  C   UNL     1      -2.603   2.248   0.000  0.00  0.00    +0.022 C 
ENDBRANCH  26  28
ENDBRANCH  25  26
ENDBRANCH   2  25
TORSDOF 6
ENDMDL
MODEL      192
REMARK  Name = 16,17-DIMETHOXY-5,7-DIOXA-13-AZAPENTACYCLO[11.8.0.0^(2,10).0^(4,8).0^(15,20)]HENICOSA-2,4(8),9,15(20),16,18-HEXAENE
REMARK  2 active torsions:
REMARK  status: ('A' for Active; 'I' for Inactive)
REMARK    1  A    between atoms: C_8  and  O_22
REMARK    2  A    between atoms: C_17  and  O_23
REMARK                            x       y       z     vdW  Elec       q    Type
REMARK                         _______ _______ _______ _____ _____    ______ ____
ROOT
ATOM      1  N   UNL     1       0.747   1.478   0.000  0.00  0.00    -0.266 NA
ATOM      2  C   UNL     1       0.747   2.498   0.000  0.00  0.00    +0.077 C 
ATOM      3  C   UNL     1      -0.102   2.984   0.000  0.00  0.00    +0.044 C 
ATOM      4  C   UNL     1      -0.990   2.476   0.000  0.00  0.00    -0.020 A 
ATOM      5  C   UNL     1      -0.968   1.478   0.000  0.00  0.00    -0.008 A 
ATOM      6  C   UNL     1      -1.838   0.992   0.000  0.00  0.00    +0.037 A 
ATOM      7  C   UNL     1      -2.708   1.478   0.000  0.00  0.00    +0.176 A 
ATOM      8  C   UNL     1      -2.708   2.476   0.000  0.00  0.00    +0.176 A 
ATOM      9  O   UNL     1      -3.663   2.794   0.000  0.00  0.00    -0.435 OA
ATOM     10  C   UNL     1      -4.215   1.990   0.000  0.00  0.00    +0.429 C 
ATOM     11  O   UNL     1      -3.640   1.182   0.000  0.00  0.00    -0.435 OA
ATOM     12  C   UNL     1      -1.838   2.984   0.000  0.00  0.00    +0.036 A 
ATOM     13  C   UNL     1       1.617   0.992   0.000  0.00  0.00    +0.102 C 
ATOM     14  C   UNL     1       1.639  -0.024   0.000  0.00  0.00    +0.027 A 
ATOM     15  C   UNL     1       2.509  -0.515   0.000  0.00  0.00    +0.169 A 
ATOM     16  C   UNL     1       2.531  -1.509   0.000  0.00  0.00    +0.172 A 
ATOM     17  C   UNL     1       1.617  -2.039   0.000  0.00  0.00    +0.040 A 
ATOM     18  C   UNL     1       0.747  -1.531   0.000  0.00  0.00    -0.001 A 
ATOM     19  C   UNL     1       0.747  -0.537   0.000  0.00  0.00    -0.020 A 
ATOM     20  C   UNL     1      -0.102  -0.024   0.000  0.00  0.00    +0.047 C 
ATOM     21  C   UNL     1      -0.102   0.992   0.000  0.00  0.00    +0.085 C 
ENDROOT
BRANCH  15  22
ATOM     22  O   UNL     1       3.357  -0.007   0.000  0.00  0.00    -0.469 OA
ATOM     23  C   UNL     1       4.215  -0.484   0.000  0.00  0.00    +0.253 C 
ENDBRANCH  15  22
BRANCH  16  24
ATOM     24  O   UNL     1       3.419  -1.999   0.000  0.00  0.00    -0.468 OA
ATOM     25  C   UNL     1       3.419  -2.984   0.000  0.00  0.00    +0.253 C 
ENDBRANCH  16  24
TORSDOF 2
ENDMDL
MODEL      193
REMARK  Name = (4E)-4-ETHYLIDENE-7-HYDROXY-6,7-DIMETHYL-2,9-DIOXA-14-AZATRICYCLO[9.5.1.0^(14,17)]HEPTADECANE-3,8-DIONE
REMARK  0 active torsions:
REMARK  status: ('A' for Active; 'I' for Inactive)
REMARK                            x       y       z     vdW  Elec       q    Type
REMARK                         _______ _______ _______ _____ _____    ______ ____
ROOT
ATOM      1  C   UNL     1      -1.650   0.260   0.000  0.00  0.00    +0.337 C 
ATOM      2  O   UNL     1      -2.658   0.298   0.000  0.00  0.00    -0.245 OA
ATOM      3  C   UNL     1      -1.348   1.226   0.000  0.00  0.00    +0.049 C 
ATOM      4  C   UNL     1      -2.234   1.755   0.000  0.00  0.00    -0.024 C 
ATOM      5  C   UNL     1      -2.234   2.763   0.000  0.00  0.00    +0.031 C 
ATOM      6  C   UNL     1      -0.705   1.961   0.000  0.00  0.00    +0.036 C 
ATOM      7  C   UNL     1       0.264   2.196   0.000  0.00  0.00    +0.043 C 
ATOM      8  C   UNL     1       0.264   3.065   0.000  0.00  0.00    +0.003 C 
ATOM      9  C   UNL     1       1.029   1.910   0.000  0.00  0.00    +0.215 C 
ATOM     10  C   UNL     1       1.713   2.637   0.000  0.00  0.00    +0.045 C 
ATOM     11  O   UNL     1       0.567   1.050   0.000  0.00  0.00    -0.214 OA
ATOM     12  C   UNL     1       1.776   1.226   0.000  0.00  0.00    +0.345 C 
ATOM     13  O   UNL     1       2.658   1.755   0.000  0.00  0.00    -0.247 OA
ATOM     14  O   UNL     1       2.078   0.260   0.000  0.00  0.00    -0.447 OA
ATOM     15  C   UNL     1       2.087  -0.676   0.000  0.00  0.00    +0.210 C 
ATOM     16  C   UNL     1       1.171  -1.453   0.000  0.00  0.00    +0.063 C 
ATOM     17  C   UNL     1       1.734  -2.259   0.000  0.00  0.00    +0.023 C 
ATOM     18  C   UNL     1       1.171  -3.065   0.000  0.00  0.00    +0.072 C 
ATOM     19  N   UNL     1       0.202  -2.763   0.000  0.00  0.00    -0.271 NA
ATOM     20  C   UNL     1      -0.743  -3.065   0.000  0.00  0.00    +0.076 C 
ATOM     21  C   UNL     1      -1.327  -2.259   0.000  0.00  0.00    +0.062 C 
ATOM     22  C   UNL     1      -0.743  -1.453   0.000  0.00  0.00    +0.185 C 
ATOM     23  C   UNL     1       0.202  -1.755   0.000  0.00  0.00    +0.102 C 
ATOM     24  O   UNL     1      -1.629  -0.739   0.000  0.00  0.00    -0.448 OA
ENDROOT
TORSDOF 0
ENDMDL
MODEL      194
REMARK  Name = 4-{methyl[(7S)-1,2,3,10-tetramethoxy-9-oxo-5,6,7,9-tetrahydrobenzo[a]heptalen-7-yl]amino}-2-butynyl 4-methoxybenzoate
REMARK  12 active torsions:
REMARK  status: ('A' for Active; 'I' for Inactive)
REMARK    1  A    between atoms: C_5  and  O_24
REMARK    2  A    between atoms: C_6  and  O_27
REMARK    3  A    between atoms: C_9  and  N_19
REMARK    4  A    between atoms: C_11  and  O_28
REMARK    5  A    between atoms: C_13  and  O_30
REMARK    6  A    between atoms: C_15  and  C_21
REMARK    7  A    between atoms: C_15  and  O_29
REMARK    8  A    between atoms: C_16  and  C_31
REMARK    9  A    between atoms: C_17  and  C_35
REMARK   10  A    between atoms: N_19  and  C_31
REMARK   11  A    between atoms: O_29  and  C_35
REMARK   12  A    between atoms: C_32  and  O_36
REMARK                            x       y       z     vdW  Elec       q    Type
REMARK                         _______ _______ _______ _____ _____    ______ ____
ROOT
ATOM      1  C   UNL     1      -2.508  -1.916   0.000  0.00  0.00    -0.000 A 
ATOM      2  C   UNL     1      -2.955  -2.811   0.000  0.00  0.00    +0.003 A 
ATOM      3  C   UNL     1      -2.508  -3.711   0.000  0.00  0.00    +0.040 A 
ATOM      4  C   UNL     1      -1.501  -3.941   0.000  0.00  0.00    +0.177 A 
ATOM      5  C   UNL     1      -0.742  -3.311   0.000  0.00  0.00    +0.229 A 
ATOM      6  O   UNL     1       0.153  -3.729   0.000  0.00  0.00    -0.283 OA
ATOM      7  C   UNL     1      -0.759  -2.299   0.000  0.00  0.00    +0.042 A 
ATOM      8  C   UNL     1      -3.308  -1.310   0.000  0.00  0.00    +0.033 A 
ATOM      9  C   UNL     1      -3.308  -0.309   0.000  0.00  0.00    -0.016 A 
ATOM     10  C   UNL     1      -2.508   0.327   0.000  0.00  0.00    +0.028 C 
ATOM     11  C   UNL     1      -1.542   0.085   0.000  0.00  0.00    +0.020 C 
ATOM     12  C   UNL     1      -1.113  -0.803   0.000  0.00  0.00    +0.099 C 
ATOM     13  C   UNL     1      -4.173   0.221   0.000  0.00  0.00    +0.036 A 
ATOM     14  C   UNL     1      -5.068  -0.309   0.000  0.00  0.00    +0.175 A 
ATOM     15  C   UNL     1      -5.068  -1.310   0.000  0.00  0.00    +0.206 A 
ATOM     16  C   UNL     1      -4.173  -1.822   0.000  0.00  0.00    +0.175 A 
ATOM     17  C   UNL     1      -1.542  -1.687   0.000  0.00  0.00    -0.010 A 
ENDROOT
BRANCH   4  18
ATOM     18  O   UNL     1      -1.260  -4.912   0.000  0.00  0.00    -0.468 OA
ATOM     19  C   UNL     1      -0.300  -5.183   0.000  0.00  0.00    +0.253 C 
ENDBRANCH   4  18
BRANCH  12  20
ATOM     20  N   UNL     1      -0.106  -0.803   0.000  0.00  0.00    -0.263 NA
ATOM     21  C   UNL     1       0.371  -1.681   0.000  0.00  0.00    +0.090 C 
BRANCH  20  22
ATOM     22  C   UNL     1       0.389   0.062   0.000  0.00  0.00    +0.150 C 
BRANCH  22  23
ATOM     23  C   UNL     1       1.395   0.062   0.000  0.00  0.00    -0.069 C 
ATOM     24  C   UNL     1       2.384   0.062   0.000  0.00  0.00    -0.042 C 
BRANCH  24  25
ATOM     25  C   UNL     1       3.385   0.062   0.000  0.00  0.00    +0.285 C 
BRANCH  25  26
ATOM     26  O   UNL     1       3.867   0.927   0.000  0.00  0.00    -0.431 OA
BRANCH  26  27
ATOM     27  C   UNL     1       4.856   0.927   0.000  0.00  0.00    +0.342 C 
ATOM     28  O   UNL     1       5.315   0.062   0.000  0.00  0.00    -0.245 OA
BRANCH  27  29
ATOM     29  C   UNL     1       5.333   1.775   0.000  0.00  0.00    +0.076 A 
ATOM     30  C   UNL     1       4.838   2.646   0.000  0.00  0.00    +0.010 A 
ATOM     31  C   UNL     1       5.333   3.476   0.000  0.00  0.00    +0.037 A 
ATOM     32  C   UNL     1       6.322   3.470   0.000  0.00  0.00    +0.139 A 
ATOM     33  C   UNL     1       6.834   2.622   0.000  0.00  0.00    +0.037 A 
ATOM     34  C   UNL     1       6.322   1.757   0.000  0.00  0.00    +0.010 A 
BRANCH  32  35
ATOM     35  O   UNL     1       6.816   4.318   0.000  0.00  0.00    -0.471 OA
ATOM     36  C   UNL     1       6.322   5.183   0.000  0.00  0.00    +0.252 C 
ENDBRANCH  32  35
ENDBRANCH  27  29
ENDBRANCH  26  27
ENDBRANCH  25  26
ENDBRANCH  24  25
ENDBRANCH  22  23
ENDBRANCH  20  22
ENDBRANCH  12  20
BRANCH  15  37
ATOM     37  O   UNL     1      -5.951  -1.822   0.000  0.00  0.00    -0.465 OA
ATOM     38  C   UNL     1      -6.834  -1.310   0.000  0.00  0.00    +0.253 C 
ENDBRANCH  15  37
BRANCH  14  39
ATOM     39  O   UNL     1      -5.951   0.227   0.000  0.00  0.00    -0.468 OA
ATOM     40  C   UNL     1      -6.834  -0.274   0.000  0.00  0.00    +0.253 C 
ENDBRANCH  14  39
BRANCH  16  41
ATOM     41  O   UNL     1      -4.173  -2.811   0.000  0.00  0.00    -0.468 OA
ATOM     42  C   UNL     1      -5.051  -3.311   0.000  0.00  0.00    +0.253 C 
ENDBRANCH  16  41
TORSDOF 12
ENDMDL
MODEL      195
REMARK  Name = 4-{[(2E)-3-methyl-5-(2,2,5,5-tetramethyl-1,3-dioxolan-4-yl)pent-2-en-1-yl]oxy}-1,2-dihydroquinolin-2-one
REMARK  6 active torsions:
REMARK  status: ('A' for Active; 'I' for Inactive)
REMARK    1  A    between atoms: C_2  and  O_16
REMARK    2  A    between atoms: C_11  and  C_14
REMARK    3  A    between atoms: C_13  and  C_17
REMARK    4  A    between atoms: C_14  and  C_17
REMARK    5  A    between atoms: C_15  and  C_18
REMARK    6  A    between atoms: O_16  and  C_18
REMARK                            x       y       z     vdW  Elec       q    Type
REMARK                         _______ _______ _______ _____ _____    ______ ____
ROOT
ATOM      1  C   UNL     1      -0.761   0.746   0.000  0.00  0.00    +0.012 C 
ATOM      2  C   UNL     1       0.097   1.243   0.000  0.00  0.00    -0.045 C 
ATOM      3  C   UNL     1       0.097   2.233   0.000  0.00  0.00    +0.026 C 
ENDROOT
BRANCH   1   4
ATOM      4  C   UNL     1      -1.615   1.243   0.000  0.00  0.00    +0.231 C 
BRANCH   4   5
ATOM      5  O   UNL     1      -2.469   0.746   0.000  0.00  0.00    -0.470 OA
BRANCH   5  16
ATOM      6  C   UNL     1      -1.606  -0.755   0.000  0.00  0.00    +0.099 A 
ATOM      7  C   UNL     1      -1.606  -1.745   0.000  0.00  0.00    +0.282 A 
ATOM      8  O   UNL     1      -0.740  -2.233   0.000  0.00  0.00    -0.265 OA
ATOM      9  N   UNL     1      -2.469  -2.233   0.000  0.00  0.00    -0.208 NA
ATOM     10  C   UNL     1      -3.336  -1.745   0.000  0.00  0.00    +0.087 A 
ATOM     11  C   UNL     1      -3.336  -0.755   0.000  0.00  0.00    +0.052 A 
ATOM     12  C   UNL     1      -4.181  -0.249   0.000  0.00  0.00    +0.005 A 
ATOM     13  C   UNL     1      -5.048  -0.755   0.000  0.00  0.00    +0.000 A 
ATOM     14  C   UNL     1      -5.048  -1.745   0.000  0.00  0.00    +0.002 A 
ATOM     15  C   UNL     1      -4.181  -2.233   0.000  0.00  0.00    +0.019 A 
ATOM     16  C   UNL     1      -2.469  -0.249   0.000  0.00  0.00    +0.145 A 
ENDBRANCH   5  16
ENDBRANCH   4   5
ENDBRANCH   1   4
BRANCH   2  17
ATOM     17  C   UNL     1       0.950   0.746   0.000  0.00  0.00    +0.024 C 
BRANCH  17  18
ATOM     18  C   UNL     1       1.809   1.230   0.000  0.00  0.00    +0.036 C 
BRANCH  18  19
ATOM     19  C   UNL     1       2.654   0.746   0.000  0.00  0.00    +0.143 C 
ATOM     20  C   UNL     1       3.498   1.243   0.000  0.00  0.00    +0.120 C 
ATOM     21  C   UNL     1       4.343   1.740   0.000  0.00  0.00    +0.032 C 
ATOM     22  C   UNL     1       2.988   2.097   0.000  0.00  0.00    +0.032 C 
ATOM     23  O   UNL     1       4.383   0.596   0.000  0.00  0.00    -0.337 OA
ATOM     24  C   UNL     1       3.961  -0.372   0.000  0.00  0.00    +0.187 C 
ATOM     25  C   UNL     1       3.652  -1.261   0.000  0.00  0.00    +0.061 C 
ATOM     26  C   UNL     1       5.048  -0.544   0.000  0.00  0.00    +0.061 C 
ATOM     27  O   UNL     1       2.926  -0.205   0.000  0.00  0.00    -0.334 OA
ENDBRANCH  18  19
ENDBRANCH  17  18
ENDBRANCH   2  17
TORSDOF 6
ENDMDL
MODEL      196
REMARK  Name = METHYL 12-ETHYL-8,16-DIAZAPENTACYCLO[10.6.1.0^(1,9).0^(2,7).0^(16,19)]NONADECA-2,4,6,9-TETRAENE-10-CARBOXYLATE
REMARK  3 active torsions:
REMARK  status: ('A' for Active; 'I' for Inactive)
REMARK    1  A    between atoms: C_3  and  C_10
REMARK    2  A    between atoms: C_5  and  C_16
REMARK    3  A    between atoms: C_10  and  O_17
REMARK                            x       y       z     vdW  Elec       q    Type
REMARK                         _______ _______ _______ _____ _____    ______ ____
ROOT
ATOM      1  C   UNL     1       0.096  -0.736   0.000  0.00  0.00    +0.055 C 
ATOM      2  N   UNL     1      -0.481  -1.588   0.000  0.00  0.00    -0.217 NA
ATOM      3  C   UNL     1      -1.458  -1.285   0.000  0.00  0.00    +0.066 A 
ATOM      4  C   UNL     1      -1.458  -0.250   0.000  0.00  0.00    -0.001 A 
ATOM      5  C   UNL     1      -2.339   0.269   0.000  0.00  0.00    -0.003 A 
ATOM      6  C   UNL     1      -3.201  -0.250   0.000  0.00  0.00    -0.000 A 
ATOM      7  C   UNL     1      -3.201  -1.258   0.000  0.00  0.00    +0.001 A 
ATOM      8  C   UNL     1      -2.339  -1.777   0.000  0.00  0.00    +0.016 A 
ATOM      9  C   UNL     1       1.099  -0.736   0.000  0.00  0.00    +0.065 C 
ATOM     10  C   UNL     1       1.804  -0.162   0.000  0.00  0.00    +0.035 C 
ATOM     11  C   UNL     1       1.304   0.723   0.000  0.00  0.00    +0.018 C 
ATOM     12  C   UNL     1       0.276   0.723   0.000  0.00  0.00    +0.066 C 
ATOM     13  N   UNL     1      -0.116   1.640   0.000  0.00  0.00    -0.273 NA
ATOM     14  C   UNL     1      -1.095   1.575   0.000  0.00  0.00    +0.073 C 
ATOM     15  C   UNL     1      -1.340   0.573   0.000  0.00  0.00    +0.028 C 
ATOM     16  C   UNL     1       0.403   2.502   0.000  0.00  0.00    +0.072 C 
ATOM     17  C   UNL     1       1.402   2.492   0.000  0.00  0.00    +0.017 C 
ATOM     18  C   UNL     1       1.813   1.591   0.000  0.00  0.00    +0.003 C 
ATOM     19  C   UNL     1      -0.481   0.057   0.000  0.00  0.00    +0.068 C 
ENDROOT
BRANCH   9  20
ATOM     20  C   UNL     1       1.647  -1.588   0.000  0.00  0.00    +0.338 C 
ATOM     21  O   UNL     1       1.193  -2.502   0.000  0.00  0.00    -0.245 OA
BRANCH  20  22
ATOM     22  O   UNL     1       2.705  -1.588   0.000  0.00  0.00    -0.442 OA
ATOM     23  C   UNL     1       3.201  -0.726   0.000  0.00  0.00    +0.256 C 
ENDBRANCH  20  22
ENDBRANCH   9  20
BRANCH  11  24
ATOM     24  C   UNL     1       2.195   0.710   0.000  0.00  0.00    +0.002 C 
ATOM     25  C   UNL     1       2.969   1.170   0.000  0.00  0.00    +0.000 C 
ENDBRANCH  11  24
TORSDOF 3
ENDMDL
MODEL      197
REMARK  Name = 16,17-DIMETHOXY-6-{3-[(3,4,5-TRIHYDROXY-6-{[(3,4,5-TRIHYDROXYOXAN-2-YL)OXY]METHYL}OXAN-2-YL)OXY]PROP-1-EN-2-YL}-2,7,20-TRIOXAPENTACYCLO[11.8.0.0^(3,11).0^(4,8).0^(14,19)]HENICOSA-3(11),4(8),9,14,16,18 -HEXAEN-12-ONE
REMARK  9 active torsions:
REMARK  status: ('A' for Active; 'I' for Inactive)
REMARK    1  A    between atoms: C_11  and  O_32
REMARK    2  A    between atoms: C_16  and  C_36
REMARK    3  A    between atoms: C_20  and  C_24
REMARK    4  A    between atoms: C_23  and  O_35
REMARK    5  A    between atoms: C_24  and  C_38
REMARK    6  A    between atoms: C_29  and  O_47
REMARK    7  A    between atoms: C_30  and  O_48
REMARK    8  A    between atoms: O_32  and  C_38
REMARK    9  A    between atoms: O_35  and  C_36
REMARK                            x       y       z     vdW  Elec       q    Type
REMARK                         _______ _______ _______ _____ _____    ______ ____
ROOT
ATOM      1  C   UNL     1       0.027   1.393   0.000  0.00  0.00    +0.140 A 
ATOM      2  O   UNL     1       0.027   2.293   0.000  0.00  0.00    -0.482 OA
ATOM      3  C   UNL     1      -0.763   2.738   0.000  0.00  0.00    +0.240 C 
ATOM      4  C   UNL     1      -0.763   3.638   0.000  0.00  0.00    +0.241 C 
ATOM      5  O   UNL     1      -1.508   4.058   0.000  0.00  0.00    -0.472 OA
ATOM      6  C   UNL     1      -2.313   3.628   0.000  0.00  0.00    +0.138 A 
ATOM      7  C   UNL     1      -2.313   2.738   0.000  0.00  0.00    +0.021 A 
ATOM      8  C   UNL     1      -3.118   2.283   0.000  0.00  0.00    +0.039 A 
ATOM      9  C   UNL     1      -3.883   2.738   0.000  0.00  0.00    +0.172 A 
ATOM     10  C   UNL     1      -3.883   3.638   0.000  0.00  0.00    +0.175 A 
ATOM     11  C   UNL     1      -3.103   4.068   0.000  0.00  0.00    +0.077 A 
ATOM     12  C   UNL     1      -1.543   2.283   0.000  0.00  0.00    +0.139 C 
ATOM     13  C   UNL     1      -1.543   1.393   0.000  0.00  0.00    +0.178 C 
ATOM     14  O   UNL     1      -2.338   0.948   0.000  0.00  0.00    -0.291 OA
ATOM     15  C   UNL     1       0.807   0.948   0.000  0.00  0.00    +0.049 A 
ATOM     16  C   UNL     1       1.673   1.203   0.000  0.00  0.00    +0.073 C 
ATOM     17  C   UNL     1       2.203   0.528   0.000  0.00  0.00    +0.216 C 
ATOM     18  O   UNL     1       1.673  -0.252   0.000  0.00  0.00    -0.482 OA
ATOM     19  C   UNL     1       0.807   0.028   0.000  0.00  0.00    +0.137 A 
ATOM     20  C   UNL     1       0.027  -0.442   0.000  0.00  0.00    +0.037 A 
ATOM     21  C   UNL     1      -0.763   0.028   0.000  0.00  0.00    +0.009 A 
ATOM     22  C   UNL     1      -0.763   0.948   0.000  0.00  0.00    +0.069 A 
ENDROOT
BRANCH  10  23
ATOM     23  O   UNL     1      -4.663   4.058   0.000  0.00  0.00    -0.468 OA
ATOM     24  C   UNL     1      -5.443   3.613   0.000  0.00  0.00    +0.253 C 
ENDBRANCH  10  23
BRANCH   9  25
ATOM     25  O   UNL     1      -4.663   2.283   0.000  0.00  0.00    -0.468 OA
ATOM     26  C   UNL     1      -5.433   2.738   0.000  0.00  0.00    +0.253 C 
ENDBRANCH   9  25
BRANCH  17  27
ATOM     27  C   UNL     1       4.938   0.528   0.000  0.00  0.00    +0.018 C 
ATOM     28  C   UNL     1       4.108  -0.127   0.000  0.00  0.00    -0.004 C 
BRANCH  27  29
ATOM     29  C   UNL     1       5.443  -0.263   0.000  0.00  0.00    +0.170 C 
BRANCH  29  30
ATOM     30  O   UNL     1       5.043  -1.068   0.000  0.00  0.00    -0.324 OA
BRANCH  30  31
ATOM     31  C   UNL     1       5.043  -2.448   0.000  0.00  0.00    +0.270 C 
ATOM     32  O   UNL     1       4.373  -1.513   0.000  0.00  0.00    -0.326 OA
ATOM     33  C   UNL     1       3.113  -1.513   0.000  0.00  0.00    +0.180 C 
ATOM     34  C   UNL     1       2.443  -2.448   0.000  0.00  0.00    +0.214 C 
ATOM     35  C   UNL     1       3.113  -3.313   0.000  0.00  0.00    +0.220 C 
ATOM     36  O   UNL     1       3.113  -2.398   0.000  0.00  0.00    -0.217 OA
ATOM     37  O   UNL     1       2.443  -3.478   0.000  0.00  0.00    -0.218 OA
ATOM     38  C   UNL     1       4.373  -3.313   0.000  0.00  0.00    +0.241 C 
ATOM     39  O   UNL     1       4.373  -4.068   0.000  0.00  0.00    -0.215 OA
BRANCH  33  40
ATOM     40  C   UNL     1       3.113  -0.923   0.000  0.00  0.00    +0.177 C 
BRANCH  40  41
ATOM     41  O   UNL     1       1.723  -0.923   0.000  0.00  0.00    -0.326 OA
BRANCH  41  42
ATOM     42  C   UNL     1       1.743  -1.908   0.000  0.00  0.00    +0.270 C 
ATOM     43  O   UNL     1       1.073  -1.018   0.000  0.00  0.00    -0.326 OA
ATOM     44  C   UNL     1      -0.237  -1.018   0.000  0.00  0.00    +0.180 C 
ATOM     45  C   UNL     1      -0.943  -1.908   0.000  0.00  0.00    +0.214 C 
ATOM     46  C   UNL     1      -0.237  -2.773   0.000  0.00  0.00    +0.220 C 
ATOM     47  O   UNL     1      -0.237  -1.953   0.000  0.00  0.00    -0.217 OA
ATOM     48  O   UNL     1      -0.943  -0.993   0.000  0.00  0.00    -0.218 OA
ATOM     49  C   UNL     1       1.073  -2.773   0.000  0.00  0.00    +0.241 C 
ATOM     50  O   UNL     1       1.073  -3.598   0.000  0.00  0.00    -0.215 OA
ENDBRANCH  41  42
ENDBRANCH  40  41
ENDBRANCH  33  40
ENDBRANCH  30  31
ENDBRANCH  29  30
ENDBRANCH  27  29
ENDBRANCH  17  27
TORSDOF 9
ENDMDL
MODEL      198
REMARK  Name = (E)-{1-[7-(acetyloxy)-9a,11a-dimethyl-3H,3aH,3bH,4H,6H,7H,8H,9H,9aH,9bH,10H,11H,11aH-cyclopenta[a]phenanthren-1-yl]ethylidene}amino acetate
REMARK  5 active torsions:
REMARK  status: ('A' for Active; 'I' for Inactive)
REMARK    1  A    between atoms: C_3  and  C_14
REMARK    2  A    between atoms: N_11  and  O_20
REMARK    3  A    between atoms: C_18  and  O_21
REMARK    4  A    between atoms: C_19  and  O_20
REMARK    5  A    between atoms: O_21  and  C_22
REMARK                            x       y       z     vdW  Elec       q    Type
REMARK                         _______ _______ _______ _____ _____    ______ ____
ROOT
ATOM      1  C   UNL     1       0.939   0.519   0.000  0.00  0.00    +0.020 C 
ATOM      2  C   UNL     1       0.939   1.552   0.000  0.00  0.00    +0.004 C 
ATOM      3  C   UNL     1       0.059   1.033   0.000  0.00  0.00    +0.004 C 
ATOM      4  C   UNL     1      -0.805   0.519   0.000  0.00  0.00    +0.001 C 
ATOM      5  C   UNL     1      -0.805  -0.474   0.000  0.00  0.00    +0.004 C 
ATOM      6  C   UNL     1       0.094  -0.964   0.000  0.00  0.00    +0.005 C 
ATOM      7  C   UNL     1       0.094  -1.972   0.000  0.00  0.00    +0.025 C 
ATOM      8  C   UNL     1      -0.805  -2.466   0.000  0.00  0.00    -0.035 C 
ATOM      9  C   UNL     1      -1.660  -1.972   0.000  0.00  0.00    -0.046 C 
ATOM     10  C   UNL     1      -2.525  -2.466   0.000  0.00  0.00    +0.065 C 
ATOM     11  C   UNL     1      -3.404  -1.972   0.000  0.00  0.00    +0.173 C 
ATOM     12  C   UNL     1      -3.404  -0.964   0.000  0.00  0.00    +0.044 C 
ATOM     13  C   UNL     1      -2.525  -0.474   0.000  0.00  0.00    +0.007 C 
ATOM     14  C   UNL     1      -1.660  -0.964   0.000  0.00  0.00    +0.015 C 
ATOM     15  C   UNL     1      -1.660   0.035   0.000  0.00  0.00    +0.004 C 
ATOM     16  C   UNL     1       0.939  -0.474   0.000  0.00  0.00    +0.008 C 
ATOM     17  C   UNL     1       1.888  -0.771   0.000  0.00  0.00    +0.026 C 
ATOM     18  C   UNL     1       2.456   0.059   0.000  0.00  0.00    -0.029 C 
ATOM     19  C   UNL     1       1.888   0.830   0.000  0.00  0.00    -0.010 C 
ENDROOT
BRANCH  19  20
ATOM     20  C   UNL     1       2.243   1.779   0.000  0.00  0.00    +0.094 C 
ATOM     21  C   UNL     1       1.591   2.550   0.000  0.00  0.00    +0.055 C 
ATOM     22  N   UNL     1       3.202   1.981   0.000  0.00  0.00    -0.078 NA
BRANCH  22  23
ATOM     23  O   UNL     1       3.523   2.915   0.000  0.00  0.00    -0.316 OA
BRANCH  23  24
ATOM     24  C   UNL     1       4.482   3.118   0.000  0.00  0.00    +0.345 C 
ATOM     25  C   UNL     1       5.099   2.372   0.000  0.00  0.00    +0.124 C 
ATOM     26  O   UNL     1       4.921   4.082   0.000  0.00  0.00    -0.248 OA
ENDBRANCH  23  24
ENDBRANCH  22  23
ENDBRANCH  19  20
BRANCH  11  27
ATOM     27  O   UNL     1      -4.269  -2.490   0.000  0.00  0.00    -0.452 OA
BRANCH  27  28
ATOM     28  C   UNL     1      -4.269  -3.474   0.000  0.00  0.00    +0.317 C 
ATOM     29  C   UNL     1      -5.099  -3.948   0.000  0.00  0.00    +0.121 C 
ATOM     30  O   UNL     1      -3.439  -4.082   0.000  0.00  0.00    -0.250 OA
ENDBRANCH  27  28
ENDBRANCH  11  27
TORSDOF 5
ENDMDL
MODEL      199
REMARK  Name = 2-({8-HYDROXY-4,6,12,17,17-PENTAMETHYL-18-[(3,4,5-TRIHYDROXYOXAN-2-YL)OXY]-9-OXAHEXACYCLO[11.9.0.0^(1,21).0^(4,12).0^(5,10).0^(16,21)]DOCOSAN-14-YL}OXY)-6-(HYDROXYMETHYL)OXANE-3,4,5-TRIOL
REMARK  5 active torsions:
REMARK  status: ('A' for Active; 'I' for Inactive)
REMARK    1  A    between atoms: C_8  and  O_24
REMARK    2  A    between atoms: C_13  and  O_30
REMARK    3  A    between atoms: C_17  and  O_24
REMARK    4  A    between atoms: C_21  and  C_46
REMARK    5  A    between atoms: C_26  and  O_30
REMARK                            x       y       z     vdW  Elec       q    Type
REMARK                         _______ _______ _______ _____ _____    ______ ____
ROOT
ATOM      1  C   UNL     1      -0.380   1.349   0.000  0.00  0.00    +0.000 C 
ATOM      2  C   UNL     1      -1.113   1.788   0.000  0.00  0.00    +0.002 C 
ATOM      3  C   UNL     1      -1.756   1.349   0.000  0.00  0.00    +0.030 C 
ATOM      4  C   UNL     1      -1.756   0.540   0.000  0.00  0.00    +0.118 C 
ATOM      5  C   UNL     1      -1.113   0.129   0.000  0.00  0.00    +0.025 C 
ATOM      6  C   UNL     1      -0.792  -0.589   0.000  0.00  0.00    +0.002 C 
ATOM      7  C   UNL     1      -1.584  -0.616   0.000  0.00  0.00    +0.002 C 
ATOM      8  C   UNL     1      -0.380   2.339   0.000  0.00  0.00    +0.000 C 
ATOM      9  C   UNL     1      -0.380   0.540   0.000  0.00  0.00    +0.005 C 
ATOM     10  C   UNL     1       0.353   0.129   0.000  0.00  0.00    +0.030 C 
ATOM     11  C   UNL     1       1.071   0.540   0.000  0.00  0.00    +0.118 C 
ATOM     12  C   UNL     1       1.071   1.349   0.000  0.00  0.00    +0.027 C 
ATOM     13  C   UNL     1       1.777   1.788   0.000  0.00  0.00    +0.005 C 
ATOM     14  C   UNL     1       1.777   2.612   0.000  0.00  0.00    +0.002 C 
ATOM     15  C   UNL     1       1.777   3.576   0.000  0.00  0.00    +0.000 C 
ATOM     16  C   UNL     1       2.548   2.853   0.000  0.00  0.00    +0.027 C 
ATOM     17  C   UNL     1       2.998   2.200   0.000  0.00  0.00    +0.118 C 
ATOM     18  O   UNL     1       3.924   2.200   0.000  0.00  0.00    -0.331 OA
ATOM     19  C   UNL     1       4.234   2.880   0.000  0.00  0.00    +0.269 C 
ATOM     20  C   UNL     1       3.822   3.549   0.000  0.00  0.00    +0.064 C 
ATOM     21  O   UNL     1       5.224   2.869   0.000  0.00  0.00    -0.190 OA
ATOM     22  C   UNL     1       2.971   3.549   0.000  0.00  0.00    +0.007 C 
ATOM     23  C   UNL     1       2.473   4.368   0.000  0.00  0.00    +0.000 C 
ATOM     24  C   UNL     1       1.071   3.035   0.000  0.00  0.00    +0.000 C 
ATOM     25  C   UNL     1       0.353   2.612   0.000  0.00  0.00    +0.000 C 
ATOM     26  C   UNL     1       1.766   0.824   0.000  0.00  0.00    +0.000 C 
ATOM     27  C   UNL     1       2.548   1.541   0.000  0.00  0.00    +0.030 C 
ATOM     28  C   UNL     1       0.353   1.788   0.000  0.00  0.00    +0.002 C 
ENDROOT
BRANCH   4  29
ATOM     29  O   UNL     1      -2.500   0.118   0.000  0.00  0.00    -0.331 OA
BRANCH  29  30
ATOM     30  C   UNL     1      -2.500  -1.001   0.000  0.00  0.00    +0.269 C 
ATOM     31  O   UNL     1      -3.190  -0.102   0.000  0.00  0.00    -0.326 OA
ATOM     32  C   UNL     1      -4.518  -0.102   0.000  0.00  0.00    +0.180 C 
ATOM     33  C   UNL     1      -5.224  -1.001   0.000  0.00  0.00    +0.214 C 
ATOM     34  C   UNL     1      -4.518  -1.884   0.000  0.00  0.00    +0.220 C 
ATOM     35  O   UNL     1      -4.518  -1.038   0.000  0.00  0.00    -0.217 OA
ATOM     36  O   UNL     1      -5.224  -2.039   0.000  0.00  0.00    -0.218 OA
ATOM     37  C   UNL     1      -3.190  -1.884   0.000  0.00  0.00    +0.241 C 
ATOM     38  O   UNL     1      -3.190  -2.644   0.000  0.00  0.00    -0.215 OA
ENDBRANCH  29  30
ENDBRANCH   4  29
BRANCH  11  39
ATOM     39  O   UNL     1       3.511  -0.728   0.000  0.00  0.00    -0.331 OA
BRANCH  39  40
ATOM     40  C   UNL     1       3.511  -2.489   0.000  0.00  0.00    +0.269 C 
ATOM     41  O   UNL     1       2.719  -1.451   0.000  0.00  0.00    -0.326 OA
ATOM     42  C   UNL     1       1.242  -1.451   0.000  0.00  0.00    +0.183 C 
ATOM     43  C   UNL     1       0.471  -2.489   0.000  0.00  0.00    +0.214 C 
ATOM     44  C   UNL     1       1.242  -3.469   0.000  0.00  0.00    +0.220 C 
ATOM     45  O   UNL     1       1.263  -2.516   0.000  0.00  0.00    -0.217 OA
ATOM     46  O   UNL     1       0.508  -3.736   0.000  0.00  0.00    -0.218 OA
ATOM     47  C   UNL     1       2.719  -3.469   0.000  0.00  0.00    +0.241 C 
ATOM     48  O   UNL     1       2.719  -4.368   0.000  0.00  0.00    -0.215 OA
BRANCH  42  49
ATOM     49  C   UNL     1       1.242  -0.835   0.000  0.00  0.00    +0.214 C 
ATOM     50  O   UNL     1       0.380  -0.396   0.000  0.00  0.00    -0.218 OA
ENDBRANCH  42  49
ENDBRANCH  39  40
ENDBRANCH  11  39
TORSDOF 5
ENDMDL
MODEL      200
REMARK  Name = 3-(2,3-dimethyl-2-{[(2-oxo-2H-chromen-7-yl)oxy]methyl}-6-(propan-2-ylidene)cyclohexyl)propanoic acid
REMARK  6 active torsions:
REMARK  status: ('A' for Active; 'I' for Inactive)
REMARK    1  A    between atoms: C_2  and  C_13
REMARK    2  A    between atoms: C_3  and  C_9
REMARK    3  A    between atoms: C_9  and  O_20
REMARK    4  A    between atoms: C_13  and  C_23
REMARK    5  A    between atoms: C_15  and  C_23
REMARK    6  A    between atoms: O_20  and  C_21
REMARK                            x       y       z     vdW  Elec       q    Type
REMARK                         _______ _______ _______ _____ _____    ______ ____
ROOT
ATOM      1  C   UNL     1      -3.464  -0.989   0.000  0.00  0.00    -0.056 C 
ATOM      2  C   UNL     1      -4.355  -0.483   0.000  0.00  0.00    -0.052 C 
ATOM      3  C   UNL     1      -5.236  -0.989   0.000  0.00  0.00    +0.026 C 
ATOM      4  C   UNL     1      -4.323   0.569   0.000  0.00  0.00    +0.026 C 
ATOM      5  C   UNL     1      -3.464  -2.010   0.000  0.00  0.00    +0.021 C 
ATOM      6  C   UNL     1      -2.604  -2.493   0.000  0.00  0.00    +0.004 C 
ATOM      7  C   UNL     1      -1.745  -2.010   0.000  0.00  0.00    +0.004 C 
ATOM      8  C   UNL     1      -1.745  -0.989   0.000  0.00  0.00    +0.040 C 
ATOM      9  C   UNL     1      -1.732   0.107   0.000  0.00  0.00    +0.004 C 
ATOM     10  C   UNL     1      -0.832  -2.524   0.000  0.00  0.00    +0.000 C 
ATOM     11  C   UNL     1      -2.604  -0.506   0.000  0.00  0.00    +0.035 C 
ENDROOT
BRANCH   8  12
ATOM     12  C   UNL     1      -0.864  -0.483   0.000  0.00  0.00    +0.205 C 
BRANCH  12  13
ATOM     13  O   UNL     1       0.027  -0.989   0.000  0.00  0.00    -0.475 OA
BRANCH  13  14
ATOM     14  C   UNL     1       0.908  -0.483   0.000  0.00  0.00    +0.142 A 
ATOM     15  C   UNL     1       0.908   0.537   0.000  0.00  0.00    +0.037 A 
ATOM     16  C   UNL     1       1.768   1.052   0.000  0.00  0.00    +0.006 A 
ATOM     17  C   UNL     1       2.627   0.537   0.000  0.00  0.00    +0.035 A 
ATOM     18  C   UNL     1       2.627  -0.483   0.000  0.00  0.00    +0.152 A 
ATOM     19  O   UNL     1       3.486  -0.967   0.000  0.00  0.00    -0.421 OA
ATOM     20  C   UNL     1       4.346  -0.483   0.000  0.00  0.00    +0.346 A 
ATOM     21  C   UNL     1       4.346   0.537   0.000  0.00  0.00    +0.082 A 
ATOM     22  O   UNL     1       5.236  -0.989   0.000  0.00  0.00    -0.244 OA
ATOM     23  C   UNL     1       3.486   1.052   0.000  0.00  0.00    +0.010 A 
ATOM     24  C   UNL     1       1.768  -0.967   0.000  0.00  0.00    +0.074 A 
ENDBRANCH  13  14
ENDBRANCH  12  13
ENDBRANCH   8  12
BRANCH  11  25
ATOM     25  C   UNL     1      -2.604   0.515   0.000  0.00  0.00    +0.012 C 
BRANCH  25  26
ATOM     26  C   UNL     1      -1.745   1.020   0.000  0.00  0.00    +0.114 C 
BRANCH  26  27
ATOM     27  C   UNL     1      -1.745   2.018   0.000  0.00  0.00    +0.365 C 
ATOM     28  O   UNL     1      -0.864   2.524   0.000  0.00  0.00    -0.246 OA
ATOM     29  O   UNL     1      -2.604   2.524   0.000  0.00  0.00    -0.246 OA
ENDBRANCH  26  27
ENDBRANCH  25  26
ENDBRANCH  11  25
TORSDOF 6
ENDMDL
MODEL      201
REMARK  Name = 6-hydroxy-6,9-dimethyl-3-methylidene-2-oxo-2H,3H,3aH,4H,5H,6H,6aH,7H,9aH,9bH-azuleno[4,5-b]furan-4-yl acetate
REMARK  2 active torsions:
REMARK  status: ('A' for Active; 'I' for Inactive)
REMARK    1  A    between atoms: C_7  and  O_14
REMARK    2  A    between atoms: O_14  and  C_15
REMARK                            x       y       z     vdW  Elec       q    Type
REMARK                         _______ _______ _______ _____ _____    ______ ____
ROOT
ATOM      1  C   UNL     1      -0.994  -0.340   0.000  0.00  0.00    +0.180 C 
ATOM      2  C   UNL     1      -1.592   0.489   0.000  0.00  0.00    +0.061 C 
ATOM      3  C   UNL     1      -2.626   0.392   0.000  0.00  0.00    -0.045 C 
ATOM      4  C   UNL     1      -3.179  -0.418   0.000  0.00  0.00    +0.026 C 
ATOM      5  C   UNL     1      -2.975   1.284   0.000  0.00  0.00    -0.034 C 
ATOM      6  C   UNL     1      -2.232   1.964   0.000  0.00  0.00    +0.028 C 
ATOM      7  C   UNL     1      -1.358   1.410   0.000  0.00  0.00    +0.040 C 
ATOM      8  C   UNL     1      -0.466   1.827   0.000  0.00  0.00    +0.131 C 
ATOM      9  C   UNL     1       0.433   1.410   0.000  0.00  0.00    +0.074 C 
ATOM     10  C   UNL     1       0.630   0.429   0.000  0.00  0.00    +0.179 C 
ATOM     11  C   UNL     1      -0.466   2.837   0.000  0.00  0.00    +0.033 C 
ATOM     12  O   UNL     1       0.515   2.265   0.000  0.00  0.00    -0.226 OA
ATOM     13  O   UNL     1      -1.280  -1.329   0.000  0.00  0.00    -0.449 OA
ATOM     14  C   UNL     1      -0.485  -1.882   0.000  0.00  0.00    +0.337 C 
ATOM     15  C   UNL     1       0.325  -1.329   0.000  0.00  0.00    +0.060 C 
ATOM     16  C   UNL     1       1.262  -1.678   0.000  0.00  0.00    +0.002 C 
ATOM     17  O   UNL     1      -0.477  -2.837   0.000  0.00  0.00    -0.245 OA
ATOM     18  C   UNL     1       0.024  -0.340   0.000  0.00  0.00    +0.109 C 
ENDROOT
BRANCH  10  19
ATOM     19  O   UNL     1       1.585   0.188   0.000  0.00  0.00    -0.452 OA
BRANCH  19  20
ATOM     20  C   UNL     1       2.261   0.883   0.000  0.00  0.00    +0.317 C 
ATOM     21  C   UNL     1       3.179   0.533   0.000  0.00  0.00    +0.121 C 
ATOM     22  O   UNL     1       2.102   1.916   0.000  0.00  0.00    -0.250 OA
ENDBRANCH  19  20
ENDBRANCH  10  19
TORSDOF 2
ENDMDL
MODEL      202
REMARK  Name = (1R,4S,5R,9S,13S)-14-hydroxyimino-5,13-dimethyltetracyclo[11.2.1.0~1,10~.0~4,9~]hexadecane-5-carboxylic acid
REMARK  1 active torsions:
REMARK  status: ('A' for Active; 'I' for Inactive)
REMARK    1  A    between atoms: C_3  and  C_9
REMARK                            x       y       z     vdW  Elec       q    Type
REMARK                         _______ _______ _______ _____ _____    ______ ____
ROOT
ATOM      1  C   UNL     1       0.284   0.552   0.000  0.00  0.00    +0.005 C 
ATOM      2  C   UNL     1       0.284  -0.375   0.000  0.00  0.00    +0.000 C 
ATOM      3  C   UNL     1      -0.568  -0.863   0.000  0.00  0.00    -0.004 C 
ATOM      4  C   UNL     1      -1.389  -0.375   0.000  0.00  0.00    +0.019 C 
ATOM      5  C   UNL     1      -1.389   0.552   0.000  0.00  0.00    +0.010 C 
ATOM      6  C   UNL     1      -2.214   1.040   0.000  0.00  0.00    -0.004 C 
ATOM      7  C   UNL     1      -3.040   0.552   0.000  0.00  0.00    +0.000 C 
ATOM      8  C   UNL     1      -3.040  -0.375   0.000  0.00  0.00    +0.010 C 
ATOM      9  C   UNL     1      -2.214  -0.863   0.000  0.00  0.00    +0.090 C 
ATOM     10  C   UNL     1      -1.726  -1.684   0.000  0.00  0.00    +0.011 C 
ATOM     11  C   UNL     1       1.335   0.000   0.000  0.00  0.00    +0.045 C 
ATOM     12  C   UNL     1       2.172   1.056   0.000  0.00  0.00    +0.079 C 
ATOM     13  C   UNL     1       1.105   1.968   0.000  0.00  0.00    +0.035 C 
ATOM     14  C   UNL     1       2.032   2.509   0.000  0.00  0.00    +0.006 C 
ATOM     15  C   UNL     1       0.284   2.456   0.000  0.00  0.00    +0.005 C 
ATOM     16  C   UNL     1      -0.568   1.968   0.000  0.00  0.00    +0.000 C 
ATOM     17  N   UNL     1       3.180   1.056   0.000  0.00  0.00    -0.038 NA
ATOM     18  O   UNL     1       3.630   1.995   0.000  0.00  0.00    -0.144 OA
ATOM     19  C   UNL     1       1.105   1.040   0.000  0.00  0.00    +0.006 C 
ATOM     20  C   UNL     1      -0.568   1.040   0.000  0.00  0.00    -0.004 C 
ENDROOT
BRANCH   9  21
ATOM     21  C   UNL     1      -2.676  -1.684   0.000  0.00  0.00    +0.363 C 
ATOM     22  O   UNL     1      -3.630  -1.684   0.000  0.00  0.00    -0.246 OA
ATOM     23  O   UNL     1      -2.214  -2.509   0.000  0.00  0.00    -0.246 OA
ENDBRANCH   9  21
TORSDOF 1
ENDMDL
MODEL      203
REMARK  Name = (14Z)-14-{2-[(14Z)-5-CARBOXY-5,9,13-TRIMETHYLTETRACYCLO[11.2.1.0^(1,10).0^(4,9)]HEXADECAN-14-YLIDENE]HYDRAZIN-1-YLIDENE}-5,9,13-TRIMETHYLTETRACYCLO[11.2.1.0^(1,10).0^(4,9)]HEXADECANE-5-CARBOXYLIC ACID
REMARK  3 active torsions:
REMARK  status: ('A' for Active; 'I' for Inactive)
REMARK    1  A    between atoms: C_5  and  C_20
REMARK    2  A    between atoms: C_6  and  C_19
REMARK    3  A    between atoms: N_15  and  N_16
REMARK                            x       y       z     vdW  Elec       q    Type
REMARK                         _______ _______ _______ _____ _____    ______ ____
ROOT
ATOM      1  C   UNL     1      -3.194  -0.942   0.000  0.00  0.00    +0.006 C 
ATOM      2  C   UNL     1      -3.194  -1.847   0.000  0.00  0.00    +0.000 C 
ATOM      3  C   UNL     1      -4.036  -2.325   0.000  0.00  0.00    -0.003 C 
ATOM      4  C   UNL     1      -4.845  -1.847   0.000  0.00  0.00    +0.023 C 
ATOM      5  C   UNL     1      -4.845  -0.942   0.000  0.00  0.00    -0.003 C 
ATOM      6  C   UNL     1      -4.845  -0.020   0.000  0.00  0.00    -0.000 C 
ATOM      7  C   UNL     1      -5.676  -0.458   0.000  0.00  0.00    -0.000 C 
ATOM      8  C   UNL     1      -6.507  -0.942   0.000  0.00  0.00    +0.001 C 
ATOM      9  C   UNL     1      -6.507  -1.847   0.000  0.00  0.00    +0.010 C 
ATOM     10  C   UNL     1      -5.676  -2.325   0.000  0.00  0.00    +0.090 C 
ATOM     11  C   UNL     1      -5.181  -3.123   0.000  0.00  0.00    +0.011 C 
ATOM     12  C   UNL     1      -2.135  -1.466   0.000  0.00  0.00    +0.043 C 
ATOM     13  C   UNL     1      -1.292  -0.441   0.000  0.00  0.00    +0.058 C 
ATOM     14  C   UNL     1      -2.368   0.447   0.000  0.00  0.00    +0.033 C 
ATOM     15  C   UNL     1      -1.434   0.965   0.000  0.00  0.00    +0.006 C 
ATOM     16  C   UNL     1      -3.194   0.931   0.000  0.00  0.00    +0.005 C 
ATOM     17  C   UNL     1      -4.036   0.447   0.000  0.00  0.00    +0.000 C 
ATOM     18  N   UNL     1      -0.302  -0.441   0.000  0.00  0.00    -0.157 NA
ATOM     19  C   UNL     1      -2.368  -0.458   0.000  0.00  0.00    +0.006 C 
ATOM     20  C   UNL     1      -4.036  -0.458   0.000  0.00  0.00    +0.000 C 
ENDROOT
BRANCH  18  21
ATOM     21  N   UNL     1       0.205   0.396   0.000  0.00  0.00    -0.157 NA
ATOM     22  C   UNL     1       1.218   0.396   0.000  0.00  0.00    +0.058 C 
ATOM     23  C   UNL     1       2.049   1.443   0.000  0.00  0.00    +0.043 C 
ATOM     24  C   UNL     1       3.137   0.874   0.000  0.00  0.00    +0.006 C 
ATOM     25  C   UNL     1       2.288   0.396   0.000  0.00  0.00    +0.006 C 
ATOM     26  C   UNL     1       3.137   1.796   0.000  0.00  0.00    +0.000 C 
ATOM     27  C   UNL     1       3.979   2.280   0.000  0.00  0.00    -0.003 C 
ATOM     28  C   UNL     1       4.822   1.796   0.000  0.00  0.00    +0.023 C 
ATOM     29  C   UNL     1       4.822   0.874   0.000  0.00  0.00    -0.003 C 
ATOM     30  C   UNL     1       4.822  -0.048   0.000  0.00  0.00    -0.000 C 
ATOM     31  C   UNL     1       5.664   0.396   0.000  0.00  0.00    -0.000 C 
ATOM     32  C   UNL     1       6.507   0.874   0.000  0.00  0.00    +0.001 C 
ATOM     33  C   UNL     1       6.507   1.796   0.000  0.00  0.00    +0.010 C 
ATOM     34  C   UNL     1       5.664   2.280   0.000  0.00  0.00    +0.090 C 
ATOM     35  C   UNL     1       4.782   3.396   0.000  0.00  0.00    +0.011 C 
ATOM     36  C   UNL     1       3.979   0.396   0.000  0.00  0.00    +0.000 C 
ATOM     37  C   UNL     1       3.979  -0.481   0.000  0.00  0.00    +0.000 C 
ATOM     38  C   UNL     1       3.137  -0.982   0.000  0.00  0.00    +0.005 C 
ATOM     39  C   UNL     1       2.288  -0.481   0.000  0.00  0.00    +0.033 C 
ATOM     40  C   UNL     1       1.366  -1.039   0.000  0.00  0.00    +0.006 C 
BRANCH  34  41
ATOM     41  C   UNL     1       6.125   3.088   0.000  0.00  0.00    +0.364 C 
ATOM     42  O   UNL     1       7.099   3.088   0.000  0.00  0.00    -0.246 OA
ATOM     43  O   UNL     1       5.664   3.914   0.000  0.00  0.00    -0.246 OA
ENDBRANCH  34  41
ENDBRANCH  18  21
BRANCH  10  44
ATOM     44  C   UNL     1      -6.154  -3.123   0.000  0.00  0.00    +0.364 C 
ATOM     45  O   UNL     1      -7.099  -3.123   0.000  0.00  0.00    -0.246 OA
ATOM     46  O   UNL     1      -5.676  -3.914   0.000  0.00  0.00    -0.246 OA
ENDBRANCH  10  44
TORSDOF 3
ENDMDL
MODEL      204
REMARK  Name = 7-methoxy-1-methyl-1,2,3,4-tetrahydroisoquinolin-6-ol
REMARK  1 active torsions:
REMARK  status: ('A' for Active; 'I' for Inactive)
REMARK    1  A    between atoms: C_4  and  O_11
REMARK                            x       y       z     vdW  Elec       q    Type
REMARK                         _______ _______ _______ _____ _____    ______ ____
ROOT
ATOM      1  C   UNL     1       0.857  -0.003   0.000  0.00  0.00    -0.007 A 
ATOM      2  C   UNL     1       1.736  -0.504   0.000  0.00  0.00    +0.095 C 
ATOM      3  C   UNL     1       1.742  -1.498   0.000  0.00  0.00    +0.024 C 
ATOM      4  N   UNL     1       2.603  -0.003   0.000  0.00  0.00    -0.215 NA
ATOM      5  C   UNL     1       2.603   0.988   0.000  0.00  0.00    +0.094 C 
ATOM      6  C   UNL     1       1.736   1.498   0.000  0.00  0.00    +0.045 C 
ATOM      7  C   UNL     1       0.857   0.997   0.000  0.00  0.00    -0.020 A 
ATOM      8  C   UNL     1      -0.005   1.498   0.000  0.00  0.00    +0.041 A 
ATOM      9  C   UNL     1      -0.873   0.988   0.000  0.00  0.00    +0.229 A 
ATOM     10  C   UNL     1      -0.873  -0.003   0.000  0.00  0.00    +0.177 A 
ATOM     11  O   UNL     1      -1.744   1.465   0.000  0.00  0.00    -0.283 OA
ATOM     12  C   UNL     1      -0.005  -0.504   0.000  0.00  0.00    +0.037 A 
ENDROOT
BRANCH  10  13
ATOM     13  O   UNL     1      -1.740  -0.493   0.000  0.00  0.00    -0.468 OA
ATOM     14  C   UNL     1      -2.603   0.012   0.000  0.00  0.00    +0.253 C 
ENDBRANCH  10  13
TORSDOF 1
ENDMDL
MODEL      205
REMARK  Name = 1-acetyl-9a,11a-dimethyl-3H,3aH,3bH,4H,5H,5aH,6H,7H,8H,9H,9aH,9bH,10H,11H,11aH-cyclopenta[a]phenanthren-7-yl acetate
REMARK  3 active torsions:
REMARK  status: ('A' for Active; 'I' for Inactive)
REMARK    1  A    between atoms: C_2  and  C_14
REMARK    2  A    between atoms: C_15  and  O_18
REMARK    3  A    between atoms: O_18  and  C_19
REMARK                            x       y       z     vdW  Elec       q    Type
REMARK                         _______ _______ _______ _____ _____    ______ ____
ROOT
ATOM      1  C   UNL     1       1.927   1.321   0.000  0.00  0.00    +0.022 C 
ATOM      2  C   UNL     1       1.927   2.274   0.000  0.00  0.00    +0.004 C 
ATOM      3  C   UNL     1       1.048   1.803   0.000  0.00  0.00    +0.004 C 
ATOM      4  C   UNL     1       0.159   1.321   0.000  0.00  0.00    +0.000 C 
ATOM      5  C   UNL     1       0.159   0.288   0.000  0.00  0.00    -0.000 C 
ATOM      6  C   UNL     1       1.048  -0.220   0.000  0.00  0.00    +0.001 C 
ATOM      7  C   UNL     1       1.048  -1.236   0.000  0.00  0.00    -0.000 C 
ATOM      8  C   UNL     1       0.159  -1.744   0.000  0.00  0.00    -0.004 C 
ATOM      9  C   UNL     1      -0.704  -1.236   0.000  0.00  0.00    +0.016 C 
ATOM     10  C   UNL     1      -1.583  -1.744   0.000  0.00  0.00    +0.040 C 
ATOM     11  C   UNL     1      -2.446  -1.236   0.000  0.00  0.00    +0.169 C 
ATOM     12  C   UNL     1      -2.446  -0.220   0.000  0.00  0.00    +0.044 C 
ATOM     13  C   UNL     1      -1.583   0.288   0.000  0.00  0.00    +0.003 C 
ATOM     14  C   UNL     1      -0.704  -0.220   0.000  0.00  0.00    -0.003 C 
ATOM     15  C   UNL     1      -0.704   0.659   0.000  0.00  0.00    -0.000 C 
ATOM     16  C   UNL     1       1.927   0.278   0.000  0.00  0.00    +0.008 C 
ATOM     17  C   UNL     1       2.890  -0.013   0.000  0.00  0.00    +0.026 C 
ATOM     18  C   UNL     1       3.462   0.823   0.000  0.00  0.00    -0.028 C 
ATOM     19  C   UNL     1       2.864   1.601   0.000  0.00  0.00    +0.008 C 
ENDROOT
BRANCH  19  20
ATOM     20  C   UNL     1       3.155   2.554   0.000  0.00  0.00    +0.169 C 
ATOM     21  C   UNL     1       2.456   3.290   0.000  0.00  0.00    +0.077 C 
ATOM     22  O   UNL     1       4.134   2.755   0.000  0.00  0.00    -0.292 OA
ENDBRANCH  19  20
BRANCH  11  23
ATOM     23  O   UNL     1      -3.308  -1.744   0.000  0.00  0.00    -0.452 OA
BRANCH  23  24
ATOM     24  C   UNL     1      -3.308  -2.734   0.000  0.00  0.00    +0.317 C 
ATOM     25  C   UNL     1      -2.483  -3.290   0.000  0.00  0.00    +0.121 C 
ATOM     26  O   UNL     1      -4.134  -3.290   0.000  0.00  0.00    -0.250 OA
ENDBRANCH  23  24
ENDBRANCH  11  23
TORSDOF 3
ENDMDL
MODEL      206
REMARK  Name = 6,7-dimethoxy-1,2,2-trimethyl-1,2,3,4-tetrahydroisoquinolin-2-ium
REMARK  2 active torsions:
REMARK  status: ('A' for Active; 'I' for Inactive)
REMARK    1  A    between atoms: C_6  and  O_13
REMARK    2  A    between atoms: C_8  and  O_14
REMARK                            x       y       z     vdW  Elec       q    Type
REMARK                         _______ _______ _______ _____ _____    ______ ____
ROOT
ATOM      1  N   UNL     1       2.163  -0.002   0.000  0.00  0.00    +0.305 N 
ATOM      2  C   UNL     1       2.862   0.701   0.000  0.00  0.00    +0.171 C 
ATOM      3  C   UNL     1       3.034  -0.444   0.000  0.00  0.00    +0.171 C 
ATOM      4  C   UNL     1       2.163   0.997   0.000  0.00  0.00    +0.114 C 
ATOM      5  C   UNL     1       1.293   1.505   0.000  0.00  0.00    +0.087 C 
ATOM      6  C   UNL     1       0.422   0.997   0.000  0.00  0.00    -0.012 A 
ATOM      7  C   UNL     1       0.422  -0.002   0.000  0.00  0.00    +0.026 A 
ATOM      8  C   UNL     1      -0.426  -0.510   0.000  0.00  0.00    +0.041 A 
ATOM      9  C   UNL     1      -1.297  -0.002   0.000  0.00  0.00    +0.172 A 
ATOM     10  C   UNL     1      -1.297   0.997   0.000  0.00  0.00    +0.172 A 
ATOM     11  C   UNL     1      -0.426   1.505   0.000  0.00  0.00    +0.036 A 
ATOM     12  C   UNL     1       1.293  -0.510   0.000  0.00  0.00    +0.082 C 
ATOM     13  C   UNL     1       1.293  -1.505   0.000  0.00  0.00    +0.066 C 
ENDROOT
BRANCH  10  14
ATOM     14  O   UNL     1      -2.163   1.505   0.000  0.00  0.00    -0.468 OA
ATOM     15  C   UNL     1      -3.034   1.019   0.000  0.00  0.00    +0.253 C 
ENDBRANCH  10  14
BRANCH   9  16
ATOM     16  O   UNL     1      -2.186  -0.510   0.000  0.00  0.00    -0.468 OA
ATOM     17  C   UNL     1      -3.034  -0.002   0.000  0.00  0.00    +0.253 C 
ENDBRANCH   9  16
TORSDOF 2
ENDMDL
MODEL      207
REMARK  Name = (7aR,13aS,13bR,13cR)-2,3,6,7,7a,8,13,13a,13b,13c-decahydro-1H,5H,10H-dipyrido[2,1-f:3,2,1-ij][1,6]naphthyridin-10-one
REMARK  0 active torsions:
REMARK  status: ('A' for Active; 'I' for Inactive)
REMARK                            x       y       z     vdW  Elec       q    Type
REMARK                         _______ _______ _______ _____ _____    ______ ____
ROOT
ATOM      1  N   UNL     1      -0.055   0.959   0.000  0.00  0.00    -0.283 N 
ATOM      2  C   UNL     1      -0.055   1.999   0.000  0.00  0.00    +0.249 C 
ATOM      3  O   UNL     1      -0.913   2.534   0.000  0.00  0.00    -0.270 OA
ATOM      4  C   UNL     1       0.797   2.481   0.000  0.00  0.00    +0.053 C 
ATOM      5  C   UNL     1       1.722   1.975   0.000  0.00  0.00    -0.020 C 
ATOM      6  C   UNL     1       1.722   0.959   0.000  0.00  0.00    +0.040 C 
ATOM      7  C   UNL     1      -0.937   0.472   0.000  0.00  0.00    +0.090 C 
ATOM      8  C   UNL     1      -0.937  -0.544   0.000  0.00  0.00    +0.042 C 
ATOM      9  C   UNL     1      -1.818  -1.031   0.000  0.00  0.00    +0.000 C 
ATOM     10  C   UNL     1      -1.818  -2.028   0.000  0.00  0.00    +0.017 C 
ATOM     11  C   UNL     1      -0.937  -2.534   0.000  0.00  0.00    +0.072 C 
ATOM     12  N   UNL     1      -0.055  -2.047   0.000  0.00  0.00    -0.279 NA
ATOM     13  C   UNL     1       0.797  -2.534   0.000  0.00  0.00    +0.072 C 
ATOM     14  C   UNL     1       1.679  -2.047   0.000  0.00  0.00    +0.017 C 
ATOM     15  C   UNL     1       1.703  -1.050   0.000  0.00  0.00    -0.000 C 
ATOM     16  C   UNL     1       0.821  -0.544   0.000  0.00  0.00    +0.036 C 
ATOM     17  C   UNL     1      -0.055  -1.031   0.000  0.00  0.00    +0.069 C 
ATOM     18  C   UNL     1       0.821   0.453   0.000  0.00  0.00    +0.095 C 
ENDROOT
TORSDOF 0
ENDMDL
MODEL      208
REMARK  Name = 10,20-DIHYDROXY-6,10,23-TRIMETHYL-4-AZAHEXACYCLO[12.11.0.0^(2,11).0^(4,9).0^(15,24).0^(18,23)]PENTACOSAN-17-ONE
REMARK  0 active torsions:
REMARK  status: ('A' for Active; 'I' for Inactive)
REMARK                            x       y       z     vdW  Elec       q    Type
REMARK                         _______ _______ _______ _____ _____    ______ ____
ROOT
ATOM      1  N   UNL     1       1.430   2.049   0.000  0.00  0.00    -0.277 NA
ATOM      2  C   UNL     1       0.989   2.972   0.000  0.00  0.00    +0.072 C 
ATOM      3  C   UNL     1       1.579   3.809   0.000  0.00  0.00    +0.016 C 
ATOM      4  C   UNL     1       1.167   4.732   0.000  0.00  0.00    +0.001 C 
ATOM      5  C   UNL     1       2.571   3.718   0.000  0.00  0.00    +0.002 C 
ATOM      6  C   UNL     1       3.001   2.795   0.000  0.00  0.00    +0.013 C 
ATOM      7  C   UNL     1       0.851   1.195   0.000  0.00  0.00    +0.067 C 
ATOM      8  C   UNL     1       1.304   0.290   0.000  0.00  0.00    +0.024 C 
ATOM      9  C   UNL     1       2.285   0.221   0.000  0.00  0.00    +0.039 C 
ATOM     10  C   UNL     1       2.863   1.046   0.000  0.00  0.00    +0.132 C 
ATOM     11  C   UNL     1       4.073   0.851   0.000  0.00  0.00    +0.034 C 
ATOM     12  O   UNL     1       3.603   1.981   0.000  0.00  0.00    -0.225 OA
ATOM     13  C   UNL     1       2.737  -0.731   0.000  0.00  0.00    -0.002 C 
ATOM     14  C   UNL     1       2.130  -1.568   0.000  0.00  0.00    -0.005 C 
ATOM     15  C   UNL     1       1.127  -1.488   0.000  0.00  0.00    +0.005 C 
ATOM     16  C   UNL     1       0.358  -2.187   0.000  0.00  0.00    +0.013 C 
ATOM     17  C   UNL     1      -0.536  -1.723   0.000  0.00  0.00    +0.009 C 
ATOM     18  C   UNL     1      -0.318  -0.645   0.000  0.00  0.00    -0.009 C 
ATOM     19  C   UNL     1      -1.430  -2.227   0.000  0.00  0.00    -0.001 C 
ATOM     20  C   UNL     1      -1.430  -1.350   0.000  0.00  0.00    -0.000 C 
ATOM     21  C   UNL     1      -2.325  -1.705   0.000  0.00  0.00    +0.002 C 
ATOM     22  C   UNL     1      -3.219  -2.204   0.000  0.00  0.00    +0.033 C 
ATOM     23  C   UNL     1      -3.219  -3.236   0.000  0.00  0.00    +0.152 C 
ATOM     24  C   UNL     1      -2.296  -3.741   0.000  0.00  0.00    +0.036 C 
ATOM     25  O   UNL     1      -4.073  -3.729   0.000  0.00  0.00    -0.223 OA
ATOM     26  C   UNL     1      -1.430  -3.236   0.000  0.00  0.00    +0.074 C 
ATOM     27  C   UNL     1      -0.536  -3.718   0.000  0.00  0.00    +0.146 C 
ATOM     28  O   UNL     1      -0.536  -4.732   0.000  0.00  0.00    -0.296 OA
ATOM     29  C   UNL     1       0.358  -3.190   0.000  0.00  0.00    +0.060 C 
ATOM     30  C   UNL     1       0.702  -0.565   0.000  0.00  0.00    +0.006 C 
ATOM     31  C   UNL     1       2.434   1.952   0.000  0.00  0.00    +0.102 C 
ENDROOT
TORSDOF 0
ENDMDL
MODEL      209
REMARK  Name = 3,4,5-TRIHYDROXY-6-(HYDROXYMETHYL)OXAN-2-YL 13-{[4,5-DIHYDROXY-6-(HYDROXYMETHYL)-3-{[3,4,5-TRIHYDROXY-6-(HYDROXYMETHYL)OXAN-2-YL]OXY}OXAN-2-YL]OXY}-5,9-DIMETHYLTETRACYCLO[11.2.1.0^(1,10).0^(4,9)]HEXAD ECANE-5-CARBOXYLATE
REMARK  10 active torsions:
REMARK  status: ('A' for Active; 'I' for Inactive)
REMARK    1  A    between atoms: C_1  and  O_14
REMARK    2  A    between atoms: C_2  and  O_14
REMARK    3  A    between atoms: C_3  and  O_19
REMARK    4  A    between atoms: C_4  and  O_28
REMARK    5  A    between atoms: C_11  and  C_13
REMARK    6  A    between atoms: C_11  and  O_19
REMARK    7  A    between atoms: C_24  and  C_50
REMARK    8  A    between atoms: C_25  and  C_51
REMARK    9  A    between atoms: C_26  and  C_48
REMARK   10  A    between atoms: C_27  and  O_28
REMARK                            x       y       z     vdW  Elec       q    Type
REMARK                         _______ _______ _______ _____ _____    ______ ____
ROOT
ATOM      1  C   UNL     1       2.644  -0.188   0.000  0.00  0.00    +0.095 C 
ATOM      2  C   UNL     1       3.549  -0.726   0.000  0.00  0.00    +0.027 C 
ATOM      3  C   UNL     1       2.859  -2.079   0.000  0.00  0.00    +0.002 C 
ATOM      4  C   UNL     1       1.873  -1.587   0.000  0.00  0.00    +0.002 C 
ATOM      5  C   UNL     1       1.102  -1.156   0.000  0.00  0.00    +0.000 C 
ATOM      6  C   UNL     1       1.076  -0.269   0.000  0.00  0.00    +0.002 C 
ATOM      7  C   UNL     1       0.350  -1.649   0.000  0.00  0.00    +0.001 C 
ATOM      8  C   UNL     1       0.305  -0.744   0.000  0.00  0.00    +0.000 C 
ATOM      9  C   UNL     1      -0.475  -1.174   0.000  0.00  0.00    +0.000 C 
ATOM     10  C   UNL     1      -1.246  -1.667   0.000  0.00  0.00    +0.001 C 
ATOM     11  C   UNL     1      -1.228  -2.554   0.000  0.00  0.00    +0.011 C 
ATOM     12  C   UNL     1      -0.448  -3.003   0.000  0.00  0.00    +0.090 C 
ATOM     13  C   UNL     1      -0.448  -3.908   0.000  0.00  0.00    +0.011 C 
ATOM     14  C   UNL     1       0.350  -2.528   0.000  0.00  0.00    +0.010 C 
ATOM     15  C   UNL     1       1.121  -2.940   0.000  0.00  0.00    +0.001 C 
ATOM     16  C   UNL     1       1.891  -2.465   0.000  0.00  0.00    +0.000 C 
ATOM     17  C   UNL     1       1.829   0.224   0.000  0.00  0.00    +0.027 C 
ATOM     18  C   UNL     1       2.671  -1.085   0.000  0.00  0.00    +0.027 C 
ENDROOT
BRANCH  12  19
ATOM     19  C   UNL     1      -1.909  -3.881   0.000  0.00  0.00    +0.317 C 
ATOM     20  O   UNL     1      -3.012  -3.523   0.000  0.00  0.00    -0.250 OA
BRANCH  19  21
ATOM     21  O   UNL     1      -1.954  -4.849   0.000  0.00  0.00    -0.432 OA
BRANCH  21  22
ATOM     22  C   UNL     1      -1.936  -5.970   0.000  0.00  0.00    +0.346 C 
ATOM     23  O   UNL     1      -2.707  -4.984   0.000  0.00  0.00    -0.330 OA
ATOM     24  C   UNL     1      -4.150  -4.984   0.000  0.00  0.00    +0.198 C 
ATOM     25  C   UNL     1      -4.903  -5.970   0.000  0.00  0.00    +0.223 C 
ATOM     26  C   UNL     1      -4.150  -6.938   0.000  0.00  0.00    +0.229 C 
ATOM     27  O   UNL     1      -4.150  -6.319   0.000  0.00  0.00    -0.225 OA
ATOM     28  O   UNL     1      -4.903  -6.642   0.000  0.00  0.00    -0.225 OA
ATOM     29  C   UNL     1      -2.707  -6.938   0.000  0.00  0.00    +0.259 C 
ATOM     30  O   UNL     1      -2.707  -7.520   0.000  0.00  0.00    -0.222 OA
BRANCH  24  31
ATOM     31  C   UNL     1      -4.150  -4.356   0.000  0.00  0.00    +0.207 C 
ATOM     32  O   UNL     1      -5.378  -4.401   0.000  0.00  0.00    -0.218 OA
ENDBRANCH  24  31
ENDBRANCH  21  22
ENDBRANCH  19  21
ENDBRANCH  12  19
BRANCH   1  33
ATOM     33  O   UNL     1       4.258   0.439   0.000  0.00  0.00    -0.333 OA
BRANCH  33  41
ATOM     34  C   UNL     1       4.840   2.223   0.000  0.00  0.00    +0.207 C 
ATOM     35  C   UNL     1       4.258   3.083   0.000  0.00  0.00    +0.217 C 
ATOM     36  O   UNL     1       4.240   2.178   0.000  0.00  0.00    -0.218 OA
ATOM     37  C   UNL     1       3.101   3.083   0.000  0.00  0.00    +0.214 C 
ATOM     38  O   UNL     1       3.101   3.648   0.000  0.00  0.00    -0.218 OA
ATOM     39  C   UNL     1       2.474   2.268   0.000  0.00  0.00    +0.183 C 
ATOM     40  O   UNL     1       3.101   1.425   0.000  0.00  0.00    -0.326 OA
ATOM     41  C   UNL     1       4.258   1.425   0.000  0.00  0.00    +0.266 C 
BRANCH  39  42
ATOM     42  C   UNL     1       2.474   1.300   0.000  0.00  0.00    +0.214 C 
ATOM     43  O   UNL     1       1.703   0.807   0.000  0.00  0.00    -0.218 OA
ENDBRANCH  39  42
BRANCH  34  44
ATOM     44  O   UNL     1       4.822   3.648   0.000  0.00  0.00    -0.323 OA
BRANCH  44  45
ATOM     45  C   UNL     1       4.795   5.172   0.000  0.00  0.00    +0.270 C 
ATOM     46  O   UNL     1       3.639   5.172   0.000  0.00  0.00    -0.326 OA
ATOM     47  C   UNL     1       3.012   6.014   0.000  0.00  0.00    +0.183 C 
ATOM     48  C   UNL     1       3.639   6.812   0.000  0.00  0.00    +0.214 C 
ATOM     49  C   UNL     1       4.795   6.812   0.000  0.00  0.00    +0.220 C 
ATOM     50  O   UNL     1       4.751   5.880   0.000  0.00  0.00    -0.217 OA
ATOM     51  O   UNL     1       3.657   7.520   0.000  0.00  0.00    -0.218 OA
ATOM     52  C   UNL     1       5.378   5.970   0.000  0.00  0.00    +0.241 C 
ATOM     53  O   UNL     1       5.378   6.938   0.000  0.00  0.00    -0.215 OA
BRANCH  47  54
ATOM     54  C   UNL     1       3.012   5.019   0.000  0.00  0.00    +0.214 C 
ATOM     55  O   UNL     1       2.196   4.571   0.000  0.00  0.00    -0.218 OA
ENDBRANCH  47  54
ENDBRANCH  44  45
ENDBRANCH  34  44
ENDBRANCH  33  41
ENDBRANCH   1  33
TORSDOF 10
ENDMDL
MODEL      210
REMARK  Name = 13-{[4,5-DIHYDROXY-6-(HYDROXYMETHYL)-3-{[3,4,5-TRIHYDROXY-6-(HYDROXYMETHYL)OXAN-2-YL]OXY}OXAN-2-YL]OXY}-5,9-DIMETHYL-14-METHYLIDENETETRACYCLO[11.2.1.0^(1,10).0^(4,9)]HEXADECANE-5-CARBOXYLIC ACID
REMARK  7 active torsions:
REMARK  status: ('A' for Active; 'I' for Inactive)
REMARK    1  A    between atoms: C_1  and  O_11
REMARK    2  A    between atoms: C_2  and  O_11
REMARK    3  A    between atoms: C_3  and  O_21
REMARK    4  A    between atoms: C_6  and  O_21
REMARK    5  A    between atoms: C_15  and  C_23
REMARK    6  A    between atoms: C_19  and  C_40
REMARK    7  A    between atoms: C_20  and  C_41
REMARK                            x       y       z     vdW  Elec       q    Type
REMARK                         _______ _______ _______ _____ _____    ______ ____
ROOT
ATOM      1  O   UNL     1       3.109   4.428   0.000  0.00  0.00    -0.330 OA
ENDROOT
BRANCH   1   2
ATOM      2  C   UNL     1       0.498   3.842   0.000  0.00  0.00    +0.110 C 
ATOM      3  C   UNL     1      -0.213   4.226   0.000  0.00  0.00    +0.031 C 
ATOM      4  C   UNL     1      -0.896   3.827   0.000  0.00  0.00    -0.001 C 
ATOM      5  C   UNL     1      -0.896   2.993   0.000  0.00  0.00    +0.013 C 
ATOM      6  C   UNL     1      -0.186   2.583   0.000  0.00  0.00    +0.003 C 
ATOM      7  C   UNL     1       0.638   2.049   0.000  0.00  0.00    +0.024 C 
ATOM      8  C   UNL     1      -0.186   1.790   0.000  0.00  0.00    -0.000 C 
ATOM      9  C   UNL     1      -0.896   1.365   0.000  0.00  0.00    -0.003 C 
ATOM     10  C   UNL     1      -1.617   1.790   0.000  0.00  0.00    +0.023 C 
ATOM     11  C   UNL     1      -2.311   1.355   0.000  0.00  0.00    +0.090 C 
ATOM     12  C   UNL     1      -3.021   1.790   0.000  0.00  0.00    +0.010 C 
ATOM     13  C   UNL     1      -3.021   2.583   0.000  0.00  0.00    +0.001 C 
ATOM     14  C   UNL     1      -2.311   2.993   0.000  0.00  0.00    -0.001 C 
ATOM     15  C   UNL     1      -3.109   0.832   0.000  0.00  0.00    +0.011 C 
ATOM     16  C   UNL     1      -1.617   2.583   0.000  0.00  0.00    -0.006 C 
ATOM     17  C   UNL     1      -1.617   3.407   0.000  0.00  0.00    -0.001 C 
ATOM     18  C   UNL     1       0.513   3.008   0.000  0.00  0.00    +0.031 C 
ATOM     19  C   UNL     1       1.508   3.231   0.000  0.00  0.00    -0.020 C 
ATOM     20  C   UNL     1       2.238   3.355   0.000  0.00  0.00    -0.007 C 
BRANCH  11  21
ATOM     21  C   UNL     1      -1.902   0.656   0.000  0.00  0.00    +0.364 C 
ATOM     22  O   UNL     1      -1.021   0.656   0.000  0.00  0.00    -0.246 OA
ATOM     23  O   UNL     1      -2.327  -0.091   0.000  0.00  0.00    -0.246 OA
ENDBRANCH  11  21
ENDBRANCH   1   2
BRANCH   1  31
ATOM     24  C   UNL     1       2.503  -0.552   0.000  0.00  0.00    +0.207 C 
ATOM     25  C   UNL     1       1.306  -0.552   0.000  0.00  0.00    +0.217 C 
ATOM     26  O   UNL     1       1.306   0.298   0.000  0.00  0.00    -0.218 OA
ATOM     27  C   UNL     1       0.710   0.236   0.000  0.00  0.00    +0.214 C 
ATOM     28  O   UNL     1       0.710  -0.687   0.000  0.00  0.00    -0.218 OA
ATOM     29  C   UNL     1       1.306   1.080   0.000  0.00  0.00    +0.183 C 
ATOM     30  O   UNL     1       2.503   1.080   0.000  0.00  0.00    -0.326 OA
ATOM     31  C   UNL     1       3.109   0.236   0.000  0.00  0.00    +0.266 C 
BRANCH  29  32
ATOM     32  C   UNL     1       1.306   1.588   0.000  0.00  0.00    +0.214 C 
ATOM     33  O   UNL     1       1.990   1.863   0.000  0.00  0.00    -0.218 OA
ENDBRANCH  29  32
BRANCH  24  34
ATOM     34  O   UNL     1       2.503  -1.744   0.000  0.00  0.00    -0.323 OA
BRANCH  34  35
ATOM     35  C   UNL     1       2.513  -2.925   0.000  0.00  0.00    +0.270 C 
ATOM     36  O   UNL     1       1.902  -2.081   0.000  0.00  0.00    -0.326 OA
ATOM     37  C   UNL     1       0.674  -2.081   0.000  0.00  0.00    +0.183 C 
ATOM     38  C   UNL     1       0.088  -2.925   0.000  0.00  0.00    +0.214 C 
ATOM     39  C   UNL     1       0.674  -3.723   0.000  0.00  0.00    +0.220 C 
ATOM     40  O   UNL     1       0.674  -2.873   0.000  0.00  0.00    -0.217 OA
ATOM     41  O   UNL     1       0.124  -3.894   0.000  0.00  0.00    -0.218 OA
ATOM     42  C   UNL     1       1.902  -3.723   0.000  0.00  0.00    +0.241 C 
ATOM     43  O   UNL     1       1.902  -4.428   0.000  0.00  0.00    -0.215 OA
BRANCH  37  44
ATOM     44  C   UNL     1       0.674  -1.594   0.000  0.00  0.00    +0.214 C 
ATOM     45  O   UNL     1       0.062  -1.246   0.000  0.00  0.00    -0.218 OA
ENDBRANCH  37  44
ENDBRANCH  34  35
ENDBRANCH  24  34
ENDBRANCH   1  31
TORSDOF 7
ENDMDL
MODEL      211
REMARK  Name = METHYL 5,9,13-TRIMETHYL-14-OXOTETRACYCLO[11.2.1.0^(1,10).0^(4,9)]HEXADECANE-5-CARBOXYLATE
REMARK  2 active torsions:
REMARK  status: ('A' for Active; 'I' for Inactive)
REMARK    1  A    between atoms: C_5  and  C_9
REMARK    2  A    between atoms: C_9  and  O_19
REMARK                            x       y       z     vdW  Elec       q    Type
REMARK                         _______ _______ _______ _____ _____    ______ ____
ROOT
ATOM      1  C   UNL     1       0.287   0.505   0.000  0.00  0.00    +0.007 C 
ATOM      2  C   UNL     1       0.287  -0.412   0.000  0.00  0.00    +0.000 C 
ATOM      3  C   UNL     1      -0.537  -0.907   0.000  0.00  0.00    -0.003 C 
ATOM      4  C   UNL     1      -1.358  -0.412   0.000  0.00  0.00    +0.023 C 
ATOM      5  C   UNL     1      -1.358   0.505   0.000  0.00  0.00    -0.003 C 
ATOM      6  C   UNL     1      -1.358   1.453   0.000  0.00  0.00    -0.000 C 
ATOM      7  C   UNL     1      -2.163   0.984   0.000  0.00  0.00    -0.000 C 
ATOM      8  C   UNL     1      -2.984   0.505   0.000  0.00  0.00    +0.001 C 
ATOM      9  C   UNL     1      -2.984  -0.412   0.000  0.00  0.00    +0.010 C 
ATOM     10  C   UNL     1      -2.163  -0.917   0.000  0.00  0.00    +0.086 C 
ATOM     11  C   UNL     1      -3.080  -1.516   0.000  0.00  0.00    +0.011 C 
ATOM     12  C   UNL     1       1.228  -0.110   0.000  0.00  0.00    +0.064 C 
ATOM     13  C   UNL     1       2.232   1.247   0.000  0.00  0.00    +0.150 C 
ATOM     14  C   UNL     1       1.085   1.965   0.000  0.00  0.00    +0.052 C 
ATOM     15  C   UNL     1       2.123   2.593   0.000  0.00  0.00    +0.007 C 
ATOM     16  C   UNL     1       0.255   2.393   0.000  0.00  0.00    +0.007 C 
ATOM     17  C   UNL     1      -0.537   1.942   0.000  0.00  0.00    +0.000 C 
ATOM     18  O   UNL     1       3.080   1.397   0.000  0.00  0.00    -0.296 OA
ATOM     19  C   UNL     1       1.092   0.991   0.000  0.00  0.00    +0.007 C 
ATOM     20  C   UNL     1      -0.537   0.984   0.000  0.00  0.00    +0.000 C 
ENDROOT
BRANCH  10  21
ATOM     21  C   UNL     1      -1.684  -1.722   0.000  0.00  0.00    +0.316 C 
ATOM     22  O   UNL     1      -2.179  -2.577   0.000  0.00  0.00    -0.250 OA
BRANCH  21  23
ATOM     23  O   UNL     1      -0.680  -1.722   0.000  0.00  0.00    -0.444 OA
ATOM     24  C   UNL     1      -0.178  -2.593   0.000  0.00  0.00    +0.256 C 
ENDBRANCH  21  23
ENDBRANCH  10  21
TORSDOF 2
ENDMDL
MODEL      212
REMARK  Name = (14E)-14-[(CARBAMOYLAMINO)IMINO]-5,9,13-TRIMETHYLTETRACYCLO[11.2.1.0^(1,10).0^(4,9)]HEXADECANE-5-CARBOXYLIC ACID
REMARK  2 active torsions:
REMARK  status: ('A' for Active; 'I' for Inactive)
REMARK    1  A    between atoms: C_5  and  C_10
REMARK    2  A    between atoms: N_8  and  N_14
REMARK                            x       y       z     vdW  Elec       q    Type
REMARK                         _______ _______ _______ _____ _____    ______ ____
ROOT
ATOM      1  C   UNL     1      -0.802   0.497   0.000  0.00  0.00    +0.006 C 
ATOM      2  C   UNL     1      -0.802  -0.423   0.000  0.00  0.00    +0.000 C 
ATOM      3  C   UNL     1      -1.627  -0.918   0.000  0.00  0.00    -0.003 C 
ATOM      4  C   UNL     1      -2.452  -0.423   0.000  0.00  0.00    +0.023 C 
ATOM      5  C   UNL     1      -2.452   0.497   0.000  0.00  0.00    -0.003 C 
ATOM      6  C   UNL     1      -2.452   1.448   0.000  0.00  0.00    -0.000 C 
ATOM      7  C   UNL     1      -3.253   0.978   0.000  0.00  0.00    -0.000 C 
ATOM      8  C   UNL     1      -4.078   0.497   0.000  0.00  0.00    +0.001 C 
ATOM      9  C   UNL     1      -4.078  -0.423   0.000  0.00  0.00    +0.010 C 
ATOM     10  C   UNL     1      -3.253  -0.929   0.000  0.00  0.00    +0.090 C 
ATOM     11  C   UNL     1      -4.179  -1.526   0.000  0.00  0.00    +0.011 C 
ATOM     12  C   UNL     1       0.142  -0.117   0.000  0.00  0.00    +0.043 C 
ATOM     13  C   UNL     1       1.146   1.238   0.000  0.00  0.00    +0.055 C 
ATOM     14  C   UNL     1      -0.002   1.964   0.000  0.00  0.00    +0.033 C 
ATOM     15  C   UNL     1       1.037   2.596   0.000  0.00  0.00    +0.006 C 
ATOM     16  C   UNL     1      -0.834   2.392   0.000  0.00  0.00    +0.005 C 
ATOM     17  C   UNL     1      -1.627   1.936   0.000  0.00  0.00    +0.000 C 
ATOM     18  N   UNL     1       1.996   1.389   0.000  0.00  0.00    -0.164 NA
ATOM     19  C   UNL     1      -0.002   0.984   0.000  0.00  0.00    +0.006 C 
ATOM     20  C   UNL     1      -1.627   0.978   0.000  0.00  0.00    +0.000 C 
ENDROOT
BRANCH  18  21
ATOM     21  N   UNL     1       2.543   0.588   0.000  0.00  0.00    -0.060 NA
ATOM     22  C   UNL     1       3.530   0.606   0.000  0.00  0.00    +0.380 C 
ATOM     23  N   UNL     1       3.874   1.483   0.000  0.00  0.00    -0.066 NA
ATOM     24  O   UNL     1       4.179  -0.219   0.000  0.00  0.00    -0.246 OA
ENDBRANCH  18  21
BRANCH  10  25
ATOM     25  C   UNL     1      -2.782  -1.736   0.000  0.00  0.00    +0.364 C 
ATOM     26  O   UNL     1      -1.771  -1.736   0.000  0.00  0.00    -0.246 OA
ATOM     27  O   UNL     1      -3.271  -2.596   0.000  0.00  0.00    -0.246 OA
ENDBRANCH  10  25
TORSDOF 2
ENDMDL
MODEL      213
REMARK  Name = methyl 2,4a,6a,6b,9,9,12a-heptamethyl-10,13-dioxo-1,2,3,4,4a,5,6,6a,6b,7,8,8a,9,10,11,12,12a,12b,13,14b-icosahydropicene-2-carboxylate
REMARK  2 active torsions:
REMARK  status: ('A' for Active; 'I' for Inactive)
REMARK    1  A    between atoms: C_11  and  C_15
REMARK    2  A    between atoms: C_15  and  O_30
REMARK                            x       y       z     vdW  Elec       q    Type
REMARK                         _______ _______ _______ _____ _____    ______ ____
ROOT
ATOM      1  C   UNL     1       0.518   0.188   0.000  0.00  0.00    -0.046 C 
ATOM      2  C   UNL     1       1.374   0.678   0.000  0.00  0.00    +0.033 C 
ATOM      3  C   UNL     1       2.239   0.188   0.000  0.00  0.00    -0.000 C 
ATOM      4  C   UNL     1       3.137  -0.354   0.000  0.00  0.00    +0.000 C 
ATOM      5  C   UNL     1       3.095   0.701   0.000  0.00  0.00    +0.001 C 
ATOM      6  C   UNL     1       3.095   1.709   0.000  0.00  0.00    +0.011 C 
ATOM      7  C   UNL     1       2.225   2.200   0.000  0.00  0.00    +0.090 C 
ATOM      8  C   UNL     1       1.351   2.676   0.000  0.00  0.00    +0.011 C 
ATOM      9  C   UNL     1       2.239  -0.812   0.000  0.00  0.00    +0.000 C 
ATOM     10  C   UNL     1       1.374  -1.298   0.000  0.00  0.00    +0.004 C 
ATOM     11  C   UNL     1       1.360   1.687   0.000  0.00  0.00    +0.010 C 
ATOM     12  C   UNL     1      -0.370   0.654   0.000  0.00  0.00    +0.029 C 
ATOM     13  C   UNL     1      -1.194   0.169   0.000  0.00  0.00    +0.172 C 
ATOM     14  O   UNL     1      -2.036   0.701   0.000  0.00  0.00    -0.291 OA
ATOM     15  C   UNL     1      -1.194  -0.831   0.000  0.00  0.00    +0.062 C 
ATOM     16  C   UNL     1      -0.329  -1.353   0.000  0.00  0.00    +0.010 C 
ATOM     17  C   UNL     1      -0.338  -0.456   0.000  0.00  0.00    +0.001 C 
ATOM     18  C   UNL     1      -0.329  -2.297   0.000  0.00  0.00    +0.001 C 
ATOM     19  C   UNL     1      -1.194  -2.820   0.000  0.00  0.00    +0.000 C 
ATOM     20  C   UNL     1      -2.059  -2.297   0.000  0.00  0.00    +0.007 C 
ATOM     21  C   UNL     1      -2.924  -2.829   0.000  0.00  0.00    +0.052 C 
ATOM     22  C   UNL     1      -3.780  -2.297   0.000  0.00  0.00    +0.150 C 
ATOM     23  O   UNL     1      -4.803  -2.829   0.000  0.00  0.00    -0.296 OA
ATOM     24  C   UNL     1      -3.780  -1.353   0.000  0.00  0.00    +0.064 C 
ATOM     25  C   UNL     1      -2.924  -0.831   0.000  0.00  0.00    +0.008 C 
ATOM     26  C   UNL     1      -2.401  -3.685   0.000  0.00  0.00    +0.007 C 
ATOM     27  C   UNL     1      -3.882  -3.463   0.000  0.00  0.00    +0.007 C 
ATOM     28  C   UNL     1      -2.059  -1.353   0.000  0.00  0.00    +0.008 C 
ATOM     29  C   UNL     1      -2.059  -0.345   0.000  0.00  0.00    +0.000 C 
ATOM     30  C   UNL     1       0.518  -0.831   0.000  0.00  0.00    +0.015 C 
ATOM     31  C   UNL     1       0.518  -1.798   0.000  0.00  0.00    +0.004 C 
ENDROOT
BRANCH   7  32
ATOM     32  C   UNL     1       3.081   2.686   0.000  0.00  0.00    +0.316 C 
ATOM     33  O   UNL     1       3.058   3.685   0.000  0.00  0.00    -0.250 OA
BRANCH  32  34
ATOM     34  O   UNL     1       3.970   2.232   0.000  0.00  0.00    -0.444 OA
ATOM     35  C   UNL     1       4.803   2.764   0.000  0.00  0.00    +0.256 C 
ENDBRANCH  32  34
ENDBRANCH   7  32
TORSDOF 2
ENDMDL
MODEL      214
REMARK  Name = methyl (10E)-10-[(4-chlorophenyl)methylidene]-5a,5b,8,8,11a-pentamethyl-9-oxo-1-(prop-1-en-2-yl)-icosahydro-1H-cyclopenta[a]chrysene-3a-carboxylate
REMARK  4 active torsions:
REMARK  status: ('A' for Active; 'I' for Inactive)
REMARK    1  A    between atoms: C_4  and  C_14
REMARK    2  A    between atoms: C_13  and  C_24
REMARK    3  A    between atoms: C_14  and  O_32
REMARK    4  A    between atoms: C_15  and  C_27
REMARK                            x       y       z     vdW  Elec       q    Type
REMARK                         _______ _______ _______ _____ _____    ______ ____
ROOT
ATOM      1  C   UNL     1      -1.324  -1.193   0.000  0.00  0.00    +0.005 C 
ATOM      2  C   UNL     1      -1.324  -0.191   0.000  0.00  0.00    +0.000 C 
ATOM      3  C   UNL     1      -2.192  -0.692   0.000  0.00  0.00    +0.029 C 
ATOM      4  C   UNL     1      -3.052  -1.193   0.000  0.00  0.00    +0.012 C 
ATOM      5  C   UNL     1      -3.912  -0.744   0.000  0.00  0.00    -0.001 C 
ATOM      6  C   UNL     1      -3.052  -2.143   0.000  0.00  0.00    +0.168 C 
ATOM      7  C   UNL     1      -2.192  -2.682   0.000  0.00  0.00    +0.055 C 
ATOM      8  C   UNL     1      -3.142  -3.295   0.000  0.00  0.00    +0.008 C 
ATOM      9  C   UNL     1      -1.668  -3.527   0.000  0.00  0.00    +0.008 C 
ATOM     10  O   UNL     1      -4.077  -2.682   0.000  0.00  0.00    -0.292 OA
ATOM     11  C   UNL     1      -1.324  -2.143   0.000  0.00  0.00    +0.007 C 
ATOM     12  C   UNL     1      -0.449  -2.644   0.000  0.00  0.00    +0.000 C 
ATOM     13  C   UNL     1       0.411  -2.143   0.000  0.00  0.00    +0.000 C 
ATOM     14  C   UNL     1       0.411  -1.193   0.000  0.00  0.00    +0.000 C 
ATOM     15  C   UNL     1       0.411  -0.295   0.000  0.00  0.00    +0.000 C 
ATOM     16  C   UNL     1       1.257  -0.692   0.000  0.00  0.00    +0.000 C 
ATOM     17  C   UNL     1       1.257   0.348   0.000  0.00  0.00    +0.001 C 
ATOM     18  C   UNL     1       0.382   0.834   0.000  0.00  0.00    +0.000 C 
ATOM     19  C   UNL     1      -0.449   0.318   0.000  0.00  0.00    +0.000 C 
ATOM     20  C   UNL     1       2.117   0.856   0.000  0.00  0.00    +0.014 C 
ATOM     21  C   UNL     1       2.356   1.859   0.000  0.00  0.00    +0.019 C 
ATOM     22  C   UNL     1       3.344   1.949   0.000  0.00  0.00    +0.005 C 
ATOM     23  C   UNL     1       3.755   1.036   0.000  0.00  0.00    +0.011 C 
ATOM     24  C   UNL     1       3.000   0.348   0.000  0.00  0.00    +0.090 C 
ATOM     25  C   UNL     1       3.000  -0.654   0.000  0.00  0.00    +0.011 C 
ATOM     26  C   UNL     1       1.257  -1.642   0.000  0.00  0.00    +0.000 C 
ATOM     27  C   UNL     1       2.117  -1.141   0.000  0.00  0.00    +0.001 C 
ATOM     28  C   UNL     1      -0.449  -0.692   0.000  0.00  0.00    +0.000 C 
ENDROOT
BRANCH   5  29
ATOM     29  C   UNL     1      -3.912   0.243   0.000  0.00  0.00    -0.000 A 
ATOM     30  C   UNL     1      -4.758   0.729   0.000  0.00  0.00    +0.001 A 
ATOM     31  C   UNL     1      -4.758   1.732   0.000  0.00  0.00    +0.011 A 
ATOM     32  C   UNL     1      -3.875   2.233   0.000  0.00  0.00    +0.058 A 
ATOM     33  C   UNL     1      -3.052   1.754   0.000  0.00  0.00    +0.011 A 
ATOM     34 CL   UNL     1      -3.875   3.280   0.000  0.00  0.00    -0.082 Cl
ATOM     35  C   UNL     1      -3.052   0.744   0.000  0.00  0.00    +0.001 A 
ENDBRANCH   5  29
BRANCH  21  36
ATOM     36  C   UNL     1       1.706   2.592   0.000  0.00  0.00    -0.044 C 
ATOM     37  C   UNL     1       0.741   2.435   0.000  0.00  0.00    +0.026 C 
ATOM     38  C   UNL     1       2.050   3.527   0.000  0.00  0.00    -0.009 C 
ENDBRANCH  21  36
BRANCH  24  39
ATOM     39  C   UNL     1       3.897  -0.191   0.000  0.00  0.00    +0.316 C 
ATOM     40  O   UNL     1       3.912  -1.178   0.000  0.00  0.00    -0.250 OA
BRANCH  39  41
ATOM     41  O   UNL     1       4.758   0.295   0.000  0.00  0.00    -0.444 OA
ATOM     42  C   UNL     1       4.758   1.283   0.000  0.00  0.00    +0.256 C 
ENDBRANCH  39  41
ENDBRANCH  24  39
TORSDOF 4
ENDMDL
MODEL      215
REMARK  Name = methyl (10E)-10-[(4-ethoxyphenyl)methylidene]-5a,5b,8,8,11a-pentamethyl-9-oxo-1-(prop-1-en-2-yl)-icosahydro-1H-cyclopenta[a]chrysene-3a-carboxylate
REMARK  6 active torsions:
REMARK  status: ('A' for Active; 'I' for Inactive)
REMARK    1  A    between atoms: C_4  and  C_14
REMARK    2  A    between atoms: C_13  and  C_24
REMARK    3  A    between atoms: C_14  and  O_32
REMARK    4  A    between atoms: C_15  and  C_27
REMARK    5  A    between atoms: C_35  and  O_40
REMARK    6  A    between atoms: O_40  and  C_42
REMARK                            x       y       z     vdW  Elec       q    Type
REMARK                         _______ _______ _______ _____ _____    ______ ____
ROOT
ATOM      1  C   UNL     1      -0.913  -1.310   0.000  0.00  0.00    +0.005 C 
ATOM      2  C   UNL     1      -0.913  -0.307   0.000  0.00  0.00    +0.000 C 
ATOM      3  C   UNL     1      -1.782  -0.808   0.000  0.00  0.00    +0.029 C 
ATOM      4  C   UNL     1      -2.643  -1.310   0.000  0.00  0.00    +0.012 C 
ATOM      5  C   UNL     1      -3.503  -0.861   0.000  0.00  0.00    -0.001 C 
ATOM      6  C   UNL     1      -2.643  -2.261   0.000  0.00  0.00    +0.168 C 
ATOM      7  C   UNL     1      -1.782  -2.800   0.000  0.00  0.00    +0.055 C 
ATOM      8  C   UNL     1      -2.732  -3.413   0.000  0.00  0.00    +0.008 C 
ATOM      9  C   UNL     1      -1.258  -3.646   0.000  0.00  0.00    +0.008 C 
ATOM     10  O   UNL     1      -3.668  -2.800   0.000  0.00  0.00    -0.292 OA
ATOM     11  C   UNL     1      -0.913  -2.261   0.000  0.00  0.00    +0.007 C 
ATOM     12  C   UNL     1      -0.037  -2.762   0.000  0.00  0.00    +0.000 C 
ATOM     13  C   UNL     1       0.824  -2.261   0.000  0.00  0.00    +0.000 C 
ATOM     14  C   UNL     1       0.824  -1.310   0.000  0.00  0.00    +0.000 C 
ATOM     15  C   UNL     1       0.824  -0.411   0.000  0.00  0.00    +0.000 C 
ATOM     16  C   UNL     1       1.669  -0.808   0.000  0.00  0.00    +0.000 C 
ATOM     17  C   UNL     1       1.669   0.232   0.000  0.00  0.00    +0.001 C 
ATOM     18  C   UNL     1       0.793   0.719   0.000  0.00  0.00    +0.000 C 
ATOM     19  C   UNL     1      -0.037   0.202   0.000  0.00  0.00    +0.000 C 
ATOM     20  C   UNL     1       2.530   0.741   0.000  0.00  0.00    +0.014 C 
ATOM     21  C   UNL     1       2.770   1.744   0.000  0.00  0.00    +0.019 C 
ATOM     22  C   UNL     1       3.758   1.834   0.000  0.00  0.00    +0.005 C 
ATOM     23  C   UNL     1       4.170   0.921   0.000  0.00  0.00    +0.011 C 
ATOM     24  C   UNL     1       3.413   0.232   0.000  0.00  0.00    +0.090 C 
ATOM     25  C   UNL     1       3.413  -0.771   0.000  0.00  0.00    +0.011 C 
ATOM     26  C   UNL     1       1.669  -1.759   0.000  0.00  0.00    +0.000 C 
ATOM     27  C   UNL     1       2.530  -1.258   0.000  0.00  0.00    +0.001 C 
ATOM     28  C   UNL     1      -0.037  -0.808   0.000  0.00  0.00    +0.000 C 
ENDROOT
BRANCH   5  29
ATOM     29  C   UNL     1      -3.503   0.127   0.000  0.00  0.00    -0.000 A 
ATOM     30  C   UNL     1      -4.349   0.614   0.000  0.00  0.00    +0.003 A 
ATOM     31  C   UNL     1      -4.349   1.617   0.000  0.00  0.00    +0.037 A 
ATOM     32  C   UNL     1      -3.466   2.119   0.000  0.00  0.00    +0.139 A 
ATOM     33  C   UNL     1      -2.643   1.639   0.000  0.00  0.00    +0.037 A 
ATOM     34  C   UNL     1      -2.643   0.629   0.000  0.00  0.00    +0.003 A 
BRANCH  32  35
ATOM     35  O   UNL     1      -3.466   3.166   0.000  0.00  0.00    -0.475 OA
BRANCH  35  36
ATOM     36  C   UNL     1      -4.327   3.646   0.000  0.00  0.00    +0.206 C 
ATOM     37  C   UNL     1      -5.173   3.144   0.000  0.00  0.00    +0.051 C 
ENDBRANCH  35  36
ENDBRANCH  32  35
ENDBRANCH   5  29
BRANCH  21  38
ATOM     38  C   UNL     1       2.119   2.478   0.000  0.00  0.00    -0.044 C 
ATOM     39  C   UNL     1       1.153   2.321   0.000  0.00  0.00    +0.026 C 
ATOM     40  C   UNL     1       2.463   3.413   0.000  0.00  0.00    -0.009 C 
ENDBRANCH  21  38
BRANCH  24  41
ATOM     41  C   UNL     1       4.311  -0.307   0.000  0.00  0.00    +0.316 C 
ATOM     42  O   UNL     1       4.327  -1.295   0.000  0.00  0.00    -0.250 OA
BRANCH  41  43
ATOM     43  O   UNL     1       5.173   0.180   0.000  0.00  0.00    -0.444 OA
ATOM     44  C   UNL     1       5.173   1.168   0.000  0.00  0.00    +0.256 C 
ENDBRANCH  41  43
ENDBRANCH  24  41
TORSDOF 6
ENDMDL
MODEL      216
REMARK  Name = (10Z)-10-(ethoxymethylidene)-8,8-dimethyl-2H,8H,9H,10H-pyrano[2,3-h]chromene-2,9-dione
REMARK  2 active torsions:
REMARK  status: ('A' for Active; 'I' for Inactive)
REMARK    1  A    between atoms: C_13  and  O_20
REMARK    2  A    between atoms: O_20  and  C_21
REMARK                            x       y       z     vdW  Elec       q    Type
REMARK                         _______ _______ _______ _____ _____    ______ ____
ROOT
ATOM      1  C   UNL     1      -0.369  -0.426   0.000  0.00  0.00    +0.081 C 
ATOM      2  C   UNL     1       0.478  -0.923   0.000  0.00  0.00    +0.175 C 
ATOM      3  C   UNL     1      -1.192  -0.895   0.000  0.00  0.00    +0.212 C 
ATOM      4  O   UNL     1      -1.192  -1.884   0.000  0.00  0.00    -0.288 OA
ATOM      5  C   UNL     1      -2.044  -0.426   0.000  0.00  0.00    +0.188 C 
ATOM      6  C   UNL     1      -3.005  -0.209   0.000  0.00  0.00    +0.052 C 
ATOM      7  C   UNL     1      -2.868  -0.923   0.000  0.00  0.00    +0.052 C 
ATOM      8  O   UNL     1      -2.073   0.535   0.000  0.00  0.00    -0.475 OA
ATOM      9  C   UNL     1      -1.221   1.026   0.000  0.00  0.00    +0.142 A 
ATOM     10  C   UNL     1      -1.221   2.016   0.000  0.00  0.00    +0.037 A 
ATOM     11  C   UNL     1      -0.369   2.485   0.000  0.00  0.00    +0.006 A 
ATOM     12  C   UNL     1       0.455   2.016   0.000  0.00  0.00    +0.035 A 
ATOM     13  C   UNL     1       1.301   2.485   0.000  0.00  0.00    +0.010 A 
ATOM     14  C   UNL     1       2.153   2.016   0.000  0.00  0.00    +0.082 A 
ATOM     15  C   UNL     1       2.153   1.026   0.000  0.00  0.00    +0.346 A 
ATOM     16  O   UNL     1       3.005   0.535   0.000  0.00  0.00    -0.244 OA
ATOM     17  O   UNL     1       1.301   0.535   0.000  0.00  0.00    -0.421 OA
ATOM     18  C   UNL     1       0.455   1.026   0.000  0.00  0.00    +0.152 A 
ATOM     19  C   UNL     1      -0.369   0.535   0.000  0.00  0.00    +0.075 A 
ENDROOT
BRANCH   2  20
ATOM     20  O   UNL     1       0.478  -1.896   0.000  0.00  0.00    -0.472 OA
BRANCH  20  21
ATOM     21  C   UNL     1       1.553  -2.485   0.000  0.00  0.00    +0.206 C 
ATOM     22  C   UNL     1       2.771  -1.924   0.000  0.00  0.00    +0.051 C 
ENDBRANCH  20  21
ENDBRANCH   2  20
TORSDOF 2
ENDMDL
MODEL      217
REMARK  Name = 9a-cyano-3a,5a-dihydroxy-11a-methyl-1-(5-oxo-2,5-dihydrofuran-3-yl)-hexadecahydro-1H-cyclopenta[a]phenanthren-7-yl acetate
REMARK  4 active torsions:
REMARK  status: ('A' for Active; 'I' for Inactive)
REMARK    1  A    between atoms: C_1  and  C_10
REMARK    2  A    between atoms: C_7  and  C_8
REMARK    3  A    between atoms: C_23  and  O_25
REMARK    4  A    between atoms: C_24  and  O_25
REMARK                            x       y       z     vdW  Elec       q    Type
REMARK                         _______ _______ _______ _____ _____    ______ ____
ROOT
ATOM      1  C   UNL     1      -0.683  -1.280   0.000  0.00  0.00    +0.102 C 
ATOM      2  C   UNL     1      -1.561  -0.791   0.000  0.00  0.00    +0.020 C 
ATOM      3  C   UNL     1      -2.337  -1.280   0.000  0.00  0.00    +0.045 C 
ATOM      4  C   UNL     1      -2.337  -2.244   0.000  0.00  0.00    +0.171 C 
ATOM      5  C   UNL     1      -1.561  -2.690   0.000  0.00  0.00    +0.075 C 
ATOM      6  C   UNL     1       0.144  -0.791   0.000  0.00  0.00    +0.027 C 
ATOM      7  C   UNL     1       0.144   0.173   0.000  0.00  0.00    -0.003 C 
ATOM      8  C   UNL     1       0.971   0.654   0.000  0.00  0.00    +0.002 C 
ATOM      9  C   UNL     1       1.819   0.173   0.000  0.00  0.00    +0.029 C 
ATOM     10  C   UNL     1       1.819  -0.791   0.000  0.00  0.00    +0.123 C 
ATOM     11  O   UNL     1       1.819  -1.812   0.000  0.00  0.00    -0.226 OA
ATOM     12  C   UNL     1       2.719  -1.086   0.000  0.00  0.00    +0.030 C 
ATOM     13  C   UNL     1       3.272  -0.309   0.000  0.00  0.00    +0.007 C 
ATOM     14  C   UNL     1       1.819   1.122   0.000  0.00  0.00    +0.003 C 
ATOM     15  C   UNL     1       2.719   0.431   0.000  0.00  0.00    +0.024 C 
ATOM     16  C   UNL     1       0.971  -1.280   0.000  0.00  0.00    +0.039 C 
ATOM     17  C   UNL     1       0.971  -2.244   0.000  0.00  0.00    +0.001 C 
ATOM     18  C   UNL     1       0.144  -2.690   0.000  0.00  0.00    +0.031 C 
ATOM     19  C   UNL     1      -0.683  -2.244   0.000  0.00  0.00    +0.142 C 
ATOM     20  O   UNL     1      -0.683  -3.503   0.000  0.00  0.00    -0.225 OA
ENDROOT
BRANCH  15  21
ATOM     21  C   UNL     1       3.028   1.453   0.000  0.00  0.00    +0.005 C 
ATOM     22  C   UNL     1       4.049   1.798   0.000  0.00  0.00    +0.231 C 
ATOM     23  O   UNL     1       4.049   2.833   0.000  0.00  0.00    -0.441 OA
ATOM     24  C   UNL     1       3.028   3.157   0.000  0.00  0.00    +0.341 C 
ATOM     25  O   UNL     1       2.683   4.229   0.000  0.00  0.00    -0.245 OA
ATOM     26  C   UNL     1       2.424   2.258   0.000  0.00  0.00    +0.077 C 
ENDBRANCH  15  21
BRANCH   1  27
ATOM     27  C   UNL     1      -0.669   0.014   0.000  0.00  0.00    +0.073 C 
ATOM     28  N   UNL     1      -0.669   1.222   0.000  0.00  0.00    -0.196 NA
ENDBRANCH   1  27
BRANCH   4  29
ATOM     29  O   UNL     1      -3.200  -2.747   0.000  0.00  0.00    -0.452 OA
BRANCH  29  30
ATOM     30  C   UNL     1      -3.200  -3.725   0.000  0.00  0.00    +0.317 C 
ATOM     31  C   UNL     1      -2.359  -4.214   0.000  0.00  0.00    +0.121 C 
ATOM     32  O   UNL     1      -4.049  -4.229   0.000  0.00  0.00    -0.250 OA
ENDBRANCH  29  30
ENDBRANCH   4  29
TORSDOF 4
ENDMDL
MODEL      218
REMARK  Name = 3a,5a-dihydroxy-7-[(4-methoxy-6-methyl-5-{[3,4,5-trihydroxy-6-(hydroxymethyl)oxan-2-yl]oxy}oxan-2-yl)oxy]-11a-methyl-1-(5-oxo-2,5-dihydrofuran-3-yl)-hexadecahydro-1H-cyclopenta[a]phenanthrene-9a-carba ldehyde
REMARK  8 active torsions:
REMARK  status: ('A' for Active; 'I' for Inactive)
REMARK    1  A    between atoms: C_2  and  C_34
REMARK    2  A    between atoms: C_4  and  O_13
REMARK    3  A    between atoms: C_11  and  C_14
REMARK    4  A    between atoms: C_12  and  O_13
REMARK    5  A    between atoms: C_16  and  C_47
REMARK    6  A    between atoms: C_17  and  O_35
REMARK    7  A    between atoms: C_21  and  O_46
REMARK    8  A    between atoms: O_35  and  C_36
REMARK                            x       y       z     vdW  Elec       q    Type
REMARK                         _______ _______ _______ _____ _____    ______ ____
ROOT
ATOM      1  C   UNL     1       4.111   1.440   0.000  0.00  0.00    +0.123 C 
ATOM      2  O   UNL     1       4.097   0.387   0.000  0.00  0.00    -0.226 OA
ATOM      3  C   UNL     1       4.899   1.168   0.000  0.00  0.00    +0.030 C 
ATOM      4  C   UNL     1       5.373   1.859   0.000  0.00  0.00    +0.007 C 
ATOM      5  C   UNL     1       4.899   2.528   0.000  0.00  0.00    +0.024 C 
ATOM      6  C   UNL     1       3.344   1.001   0.000  0.00  0.00    +0.038 C 
ATOM      7  C   UNL     1       3.344   0.150   0.000  0.00  0.00    +0.001 C 
ATOM      8  C   UNL     1       2.640  -0.254   0.000  0.00  0.00    +0.031 C 
ATOM      9  C   UNL     1       1.887   0.150   0.000  0.00  0.00    +0.135 C 
ATOM     10  C   UNL     1       1.887   1.001   0.000  0.00  0.00    +0.081 C 
ATOM     11  C   UNL     1       1.119   1.440   0.000  0.00  0.00    +0.012 C 
ATOM     12  C   UNL     1       0.415   1.001   0.000  0.00  0.00    +0.030 C 
ATOM     13  C   UNL     1       0.415   0.150   0.000  0.00  0.00    +0.120 C 
ATOM     14  O   UNL     1       1.887  -0.987   0.000  0.00  0.00    -0.225 OA
ATOM     15  C   UNL     1       1.119  -0.254   0.000  0.00  0.00    +0.060 C 
ATOM     16  C   UNL     1       2.640   1.440   0.000  0.00  0.00    +0.021 C 
ATOM     17  C   UNL     1       2.640   2.277   0.000  0.00  0.00    -0.004 C 
ATOM     18  C   UNL     1       3.344   2.709   0.000  0.00  0.00    +0.002 C 
ATOM     19  C   UNL     1       4.111   2.277   0.000  0.00  0.00    +0.029 C 
ATOM     20  C   UNL     1       4.097   3.281   0.000  0.00  0.00    +0.003 C 
ENDROOT
BRANCH   5  21
ATOM     21  C   UNL     1       5.255   3.316   0.000  0.00  0.00    +0.005 C 
ATOM     22  C   UNL     1       6.091   3.462   0.000  0.00  0.00    +0.231 C 
ATOM     23  O   UNL     1       6.210   4.299   0.000  0.00  0.00    -0.441 OA
ATOM     24  C   UNL     1       5.485   4.683   0.000  0.00  0.00    +0.341 C 
ATOM     25  O   UNL     1       5.171   5.722   0.000  0.00  0.00    -0.245 OA
ATOM     26  C   UNL     1       4.885   4.083   0.000  0.00  0.00    +0.077 C 
ENDBRANCH   5  21
BRANCH  10  27
ATOM     27  C   UNL     1       1.887   1.859   0.000  0.00  0.00    +0.209 C 
ATOM     28  O   UNL     1       1.119   2.277   0.000  0.00  0.00    -0.288 OA
ENDBRANCH  10  27
BRANCH  13  29
ATOM     29  O   UNL     1      -0.317  -0.303   0.000  0.00  0.00    -0.333 OA
BRANCH  29  30
ATOM     30  C   UNL     1      -0.317  -1.454   0.000  0.00  0.00    +0.238 C 
ATOM     31  C   UNL     1      -1.057  -2.374   0.000  0.00  0.00    +0.093 C 
ATOM     32  C   UNL     1      -2.444  -2.374   0.000  0.00  0.00    +0.150 C 
ATOM     33  C   UNL     1      -3.149  -1.454   0.000  0.00  0.00    +0.172 C 
ATOM     34  C   UNL     1      -2.444  -0.505   0.000  0.00  0.00    +0.147 C 
ATOM     35  C   UNL     1      -2.444   0.471   0.000  0.00  0.00    +0.035 C 
ATOM     36  O   UNL     1      -1.057  -0.505   0.000  0.00  0.00    -0.330 OA
BRANCH  32  37
ATOM     37  O   UNL     1      -2.430  -3.295   0.000  0.00  0.00    -0.351 OA
ATOM     38  C   UNL     1      -1.489  -3.818   0.000  0.00  0.00    +0.174 C 
ENDBRANCH  32  37
BRANCH  33  39
ATOM     39  O   UNL     1      -3.149  -2.730   0.000  0.00  0.00    -0.326 OA
BRANCH  39  40
ATOM     40  C   UNL     1      -3.149  -3.867   0.000  0.00  0.00    +0.270 C 
ATOM     41  O   UNL     1      -3.937  -2.849   0.000  0.00  0.00    -0.326 OA
ATOM     42  C   UNL     1      -5.457  -2.849   0.000  0.00  0.00    +0.183 C 
ATOM     43  C   UNL     1      -6.210  -3.867   0.000  0.00  0.00    +0.214 C 
ATOM     44  C   UNL     1      -5.457  -4.836   0.000  0.00  0.00    +0.220 C 
ATOM     45  O   UNL     1      -5.457  -3.950   0.000  0.00  0.00    -0.217 OA
ATOM     46  O   UNL     1      -6.210  -5.024   0.000  0.00  0.00    -0.218 OA
ATOM     47  C   UNL     1      -3.937  -4.836   0.000  0.00  0.00    +0.241 C 
ATOM     48  O   UNL     1      -3.937  -5.722   0.000  0.00  0.00    -0.215 OA
BRANCH  42  49
ATOM     49  C   UNL     1      -5.478  -1.809   0.000  0.00  0.00    +0.214 C 
ATOM     50  O   UNL     1      -4.502  -1.189   0.000  0.00  0.00    -0.218 OA
ENDBRANCH  42  49
ENDBRANCH  39  40
ENDBRANCH  33  39
ENDBRANCH  29  30
ENDBRANCH  13  29
TORSDOF 8
ENDMDL
MODEL      219
REMARK  Name = 3,4-bis(acetyloxy)-6-[(11-carboxy-4,4,6a,6b,8a,11,14b-heptamethyl-14-oxo-1,2,3,4,4a,5,6,6a,6b,7,8,8a,9,10,11,12,12a,14,14a,14b-icosahydropicen-3-yl)oxy]-5-{[3,4,5-tris(acetyloxy)-6-carboxyoxan-2-yl]ox y}oxane-2-carboxylic acid
REMARK  17 active torsions:
REMARK  status: ('A' for Active; 'I' for Inactive)
REMARK    1  A    between atoms: C_5  and  O_22
REMARK    2  A    between atoms: C_6  and  C_27
REMARK    3  A    between atoms: C_7  and  C_28
REMARK    4  A    between atoms: C_8  and  O_35
REMARK    5  A    between atoms: C_9  and  O_34
REMARK    6  A    between atoms: C_10  and  O_33
REMARK    7  A    between atoms: C_11  and  O_36
REMARK    8  A    between atoms: C_12  and  O_38
REMARK    9  A    between atoms: C_13  and  O_22
REMARK   10  A    between atoms: C_15  and  O_29
REMARK   11  A    between atoms: C_24  and  C_32
REMARK   12  A    between atoms: O_29  and  C_30
REMARK   13  A    between atoms: O_33  and  C_42
REMARK   14  A    between atoms: O_34  and  C_44
REMARK   15  A    between atoms: O_35  and  C_45
REMARK   16  A    between atoms: O_36  and  C_41
REMARK   17  A    between atoms: O_38  and  C_43
REMARK                            x       y       z     vdW  Elec       q    Type
REMARK                         _______ _______ _______ _____ _____    ______ ____
ROOT
ATOM      1  C   UNL     1      -2.598  -1.350   0.000  0.00  0.00    +0.268 C 
ATOM      2  O   UNL     1      -3.333  -0.392   0.000  0.00  0.00    -0.316 OA
ATOM      3  C   UNL     1      -4.676  -0.392   0.000  0.00  0.00    +0.264 C 
ATOM      4  C   UNL     1      -5.411  -1.350   0.000  0.00  0.00    +0.249 C 
ATOM      5  C   UNL     1      -4.676  -2.216   0.000  0.00  0.00    +0.243 C 
ATOM      6  C   UNL     1      -3.333  -2.216   0.000  0.00  0.00    +0.217 C 
ENDROOT
BRANCH   3   7
ATOM      7  C   UNL     1      -4.676   0.178   0.000  0.00  0.00    +0.395 C 
ATOM      8  O   UNL     1      -5.245   0.469   0.000  0.00  0.00    -0.243 OA
ATOM      9  O   UNL     1      -3.990   0.586   0.000  0.00  0.00    -0.243 OA
ENDBRANCH   3   7
BRANCH   6  10
ATOM     10  O   UNL     1      -3.299  -3.769   0.000  0.00  0.00    -0.321 OA
BRANCH  10  11
ATOM     11  C   UNL     1      -3.299  -5.438   0.000  0.00  0.00    +0.281 C 
ATOM     12  O   UNL     1      -4.024  -4.503   0.000  0.00  0.00    -0.315 OA
ATOM     13  C   UNL     1      -5.338  -4.503   0.000  0.00  0.00    +0.264 C 
ATOM     14  C   UNL     1      -6.121  -5.438   0.000  0.00  0.00    +0.250 C 
ATOM     15  C   UNL     1      -5.338  -6.382   0.000  0.00  0.00    +0.256 C 
ATOM     16  C   UNL     1      -4.024  -6.382   0.000  0.00  0.00    +0.268 C 
BRANCH  13  17
ATOM     17  C   UNL     1      -5.338  -3.910   0.000  0.00  0.00    +0.395 C 
ATOM     18  O   UNL     1      -6.306  -3.287   0.000  0.00  0.00    -0.243 OA
ATOM     19  O   UNL     1      -4.637  -3.243   0.000  0.00  0.00    -0.243 OA
ENDBRANCH  13  17
BRANCH  15  20
ATOM     20  O   UNL     1      -5.338  -5.895   0.000  0.00  0.00    -0.444 OA
BRANCH  20  21
ATOM     21  C   UNL     1      -4.793  -5.681   0.000  0.00  0.00    +0.318 C 
ATOM     22  C   UNL     1      -4.676  -5.121   0.000  0.00  0.00    +0.121 C 
ATOM     23  O   UNL     1      -4.316  -6.012   0.000  0.00  0.00    -0.250 OA
ENDBRANCH  20  21
ENDBRANCH  15  20
BRANCH  14  24
ATOM     24  O   UNL     1      -6.121  -6.031   0.000  0.00  0.00    -0.445 OA
BRANCH  24  25
ATOM     25  C   UNL     1      -6.598  -6.348   0.000  0.00  0.00    +0.318 C 
ATOM     26  C   UNL     1      -6.588  -6.931   0.000  0.00  0.00    +0.121 C 
ATOM     27  O   UNL     1      -7.138  -6.114   0.000  0.00  0.00    -0.250 OA
ENDBRANCH  24  25
ENDBRANCH  14  24
BRANCH  16  28
ATOM     28  O   UNL     1      -4.024  -6.849   0.000  0.00  0.00    -0.443 OA
BRANCH  28  29
ATOM     29  C   UNL     1      -3.523  -7.141   0.000  0.00  0.00    +0.318 C 
ATOM     30  C   UNL     1      -2.997  -6.888   0.000  0.00  0.00    +0.121 C 
ATOM     31  O   UNL     1      -3.523  -7.724   0.000  0.00  0.00    -0.250 OA
ENDBRANCH  28  29
ENDBRANCH  16  28
ENDBRANCH  10  11
ENDBRANCH   6  10
BRANCH   4  32
ATOM     32  O   UNL     1      -5.421  -1.900   0.000  0.00  0.00    -0.445 OA
BRANCH  32  33
ATOM     33  C   UNL     1      -5.902  -2.144   0.000  0.00  0.00    +0.318 C 
ATOM     34  C   UNL     1      -5.888  -2.718   0.000  0.00  0.00    +0.121 C 
ATOM     35  O   UNL     1      -6.404  -1.876   0.000  0.00  0.00    -0.250 OA
ENDBRANCH  32  33
ENDBRANCH   4  32
BRANCH   5  36
ATOM     36  O   UNL     1      -4.676  -1.749   0.000  0.00  0.00    -0.446 OA
BRANCH  36  37
ATOM     37  C   UNL     1      -4.131  -1.550   0.000  0.00  0.00    +0.318 C 
ATOM     38  C   UNL     1      -4.000  -0.990   0.000  0.00  0.00    +0.121 C 
ATOM     39  O   UNL     1      -3.649  -1.885   0.000  0.00  0.00    -0.250 OA
ENDBRANCH  36  37
ENDBRANCH   5  36
BRANCH   1  40
ATOM     40  O   UNL     1      -2.598  -0.017   0.000  0.00  0.00    -0.331 OA
BRANCH  40  62
ATOM     41  C   UNL     1       2.700   3.087   0.000  0.00  0.00    -0.042 C 
ATOM     42  C   UNL     1       3.810   3.856   0.000  0.00  0.00    +0.019 C 
ATOM     43  C   UNL     1       4.875   3.238   0.000  0.00  0.00    +0.003 C 
ATOM     44  C   UNL     1       6.101   2.503   0.000  0.00  0.00    +0.000 C 
ATOM     45  C   UNL     1       5.960   3.856   0.000  0.00  0.00    +0.001 C 
ATOM     46  C   UNL     1       5.960   5.082   0.000  0.00  0.00    +0.011 C 
ATOM     47  C   UNL     1       4.875   5.690   0.000  0.00  0.00    +0.094 C 
ATOM     48  C   UNL     1       3.810   6.381   0.000  0.00  0.00    +0.011 C 
ATOM     49  C   UNL     1       4.875   1.978   0.000  0.00  0.00    +0.001 C 
ATOM     50  C   UNL     1       3.810   1.384   0.000  0.00  0.00    +0.004 C 
ATOM     51  C   UNL     1       3.810   5.082   0.000  0.00  0.00    +0.015 C 
ATOM     52  C   UNL     1       1.873   3.637   0.000  0.00  0.00    +0.029 C 
ATOM     53  C   UNL     1       1.022   3.087   0.000  0.00  0.00    +0.172 C 
ATOM     54  O   UNL     1      -0.029   3.720   0.000  0.00  0.00    -0.291 OA
ATOM     55  C   UNL     1       1.022   2.095   0.000  0.00  0.00    +0.062 C 
ATOM     56  C   UNL     1       1.873   1.618   0.000  0.00  0.00    +0.010 C 
ATOM     57  C   UNL     1       1.873   2.571   0.000  0.00  0.00    +0.001 C 
ATOM     58  C   UNL     1       1.873   0.528   0.000  0.00  0.00    +0.001 C 
ATOM     59  C   UNL     1       1.022  -0.017   0.000  0.00  0.00    +0.000 C 
ATOM     60  C   UNL     1       0.170   0.528   0.000  0.00  0.00    +0.003 C 
ATOM     61  C   UNL     1      -0.755  -0.017   0.000  0.00  0.00    +0.025 C 
ATOM     62  C   UNL     1      -1.621   0.528   0.000  0.00  0.00    +0.118 C 
ATOM     63  C   UNL     1      -1.621   1.618   0.000  0.00  0.00    +0.030 C 
ATOM     64  C   UNL     1      -0.755   2.095   0.000  0.00  0.00    +0.003 C 
ATOM     65  C   UNL     1      -1.362  -1.243   0.000  0.00  0.00    +0.002 C 
ATOM     66  C   UNL     1       0.015  -1.049   0.000  0.00  0.00    +0.002 C 
ATOM     67  C   UNL     1       0.170   1.618   0.000  0.00  0.00    +0.007 C 
ATOM     68  C   UNL     1       0.170   2.630   0.000  0.00  0.00    +0.000 C 
ATOM     69  C   UNL     1       2.700   2.095   0.000  0.00  0.00    +0.016 C 
ATOM     70  C   UNL     1       2.740   0.936   0.000  0.00  0.00    +0.004 C 
BRANCH  47  71
ATOM     71  C   UNL     1       5.912   6.391   0.000  0.00  0.00    +0.364 C 
ATOM     72  O   UNL     1       7.138   5.690   0.000  0.00  0.00    -0.246 OA
ATOM     73  O   UNL     1       5.912   7.724   0.000  0.00  0.00    -0.246 OA
ENDBRANCH  47  71
ENDBRANCH  40  62
ENDBRANCH   1  40
TORSDOF 17
ENDMDL
MODEL      220
REMARK  Name = 1-acetyl-1-hydroxy-2,9a,11a-trimethyl-1H,2H,3H,3aH,3bH,4H,5H,5aH,6H,7H,8H,9H,9aH,11H,11aH-cyclopenta[a]phenanthren-7-yl 3-iodobenzoate
REMARK  4 active torsions:
REMARK  status: ('A' for Active; 'I' for Inactive)
REMARK    1  A    between atoms: C_4  and  C_16
REMARK    2  A    between atoms: C_10  and  C_15
REMARK    3  A    between atoms: C_10  and  O_17
REMARK    4  A    between atoms: O_17  and  C_21
REMARK                            x       y       z     vdW  Elec       q    Type
REMARK                         _______ _______ _______ _____ _____    ______ ____
ROOT
ATOM      1  C   UNL     1       1.793   2.178   0.000  0.00  0.00    +0.037 C 
ATOM      2  C   UNL     1       1.793   3.201   0.000  0.00  0.00    +0.003 C 
ATOM      3  C   UNL     1       0.906   2.701   0.000  0.00  0.00    +0.028 C 
ATOM      4  C   UNL     1       0.034   2.178   0.000  0.00  0.00    -0.035 C 
ATOM      5  C   UNL     1       0.034   1.180   0.000  0.00  0.00    -0.050 C 
ATOM      6  C   UNL     1       0.906   0.700   0.000  0.00  0.00    +0.018 C 
ATOM      7  C   UNL     1       0.906  -0.356   0.000  0.00  0.00    +0.004 C 
ATOM      8  C   UNL     1       0.034  -0.831   0.000  0.00  0.00    -0.003 C 
ATOM      9  C   UNL     1      -0.814  -0.356   0.000  0.00  0.00    +0.020 C 
ATOM     10  C   UNL     1      -1.686  -0.831   0.000  0.00  0.00    +0.040 C 
ATOM     11  C   UNL     1      -2.583  -0.356   0.000  0.00  0.00    +0.169 C 
ATOM     12  C   UNL     1      -2.583   0.700   0.000  0.00  0.00    +0.044 C 
ATOM     13  C   UNL     1      -1.686   1.180   0.000  0.00  0.00    +0.007 C 
ATOM     14  C   UNL     1      -0.814   0.700   0.000  0.00  0.00    +0.012 C 
ATOM     15  C   UNL     1      -0.814   1.645   0.000  0.00  0.00    +0.004 C 
ATOM     16  C   UNL     1       2.709   2.469   0.000  0.00  0.00    +0.177 C 
ATOM     17  O   UNL     1       3.804   2.852   0.000  0.00  0.00    -0.218 OA
ATOM     18  C   UNL     1       3.314   1.713   0.000  0.00  0.00    +0.035 C 
ATOM     19  C   UNL     1       2.743   0.913   0.000  0.00  0.00    +0.003 C 
ATOM     20  C   UNL     1       4.303   1.747   0.000  0.00  0.00    +0.003 C 
ATOM     21  C   UNL     1       1.793   1.180   0.000  0.00  0.00    +0.007 C 
ENDROOT
BRANCH  16  22
ATOM     22  C   UNL     1       2.709   3.375   0.000  0.00  0.00    +0.178 C 
ATOM     23  C   UNL     1       1.861   3.879   0.000  0.00  0.00    +0.075 C 
ATOM     24  O   UNL     1       3.605   3.806   0.000  0.00  0.00    -0.293 OA
ENDBRANCH  16  22
BRANCH  11  25
ATOM     25  O   UNL     1      -3.455  -0.870   0.000  0.00  0.00    -0.449 OA
BRANCH  25  26
ATOM     26  C   UNL     1      -3.455  -1.858   0.000  0.00  0.00    +0.341 C 
ATOM     27  O   UNL     1      -4.303  -2.343   0.000  0.00  0.00    -0.245 OA
BRANCH  26  28
ATOM     28  C   UNL     1      -2.607  -2.357   0.000  0.00  0.00    +0.076 A 
ATOM     29  C   UNL     1      -2.607  -3.370   0.000  0.00  0.00    +0.006 A 
ATOM     30  C   UNL     1      -1.744  -3.879   0.000  0.00  0.00    +0.001 A 
ATOM     31  C   UNL     1      -0.872  -3.380   0.000  0.00  0.00    +0.006 A 
ATOM     32  C   UNL     1      -0.863  -2.357   0.000  0.00  0.00    +0.030 A 
ATOM     33  I   UNL     1      -0.010  -1.858   0.000  0.00  0.00    -0.043 I 
ATOM     34  C   UNL     1      -1.735  -1.858   0.000  0.00  0.00    +0.012 A 
ENDBRANCH  26  28
ENDBRANCH  25  26
ENDBRANCH  11  25
TORSDOF 4
ENDMDL
MODEL      221
REMARK  Name = 2,2-dimethyl-8-oxo-2H,3H,4H,8H-pyrano[3,2-g]chromen-3-yl (2Z)-2-methylbut-2-enoate
REMARK  3 active torsions:
REMARK  status: ('A' for Active; 'I' for Inactive)
REMARK    1  A    between atoms: C_3  and  O_10
REMARK    2  A    between atoms: C_3  and  C_15
REMARK    3  A    between atoms: C_8  and  O_10
REMARK                            x       y       z     vdW  Elec       q    Type
REMARK                         _______ _______ _______ _____ _____    ______ ____
ROOT
ATOM      1  O   UNL     1      -0.887  -2.320   0.000  0.00  0.00    -0.479 OA
ATOM      2  C   UNL     1      -1.746  -1.819   0.000  0.00  0.00    +0.170 C 
ATOM      3  C   UNL     1      -1.727  -2.723   0.000  0.00  0.00    +0.047 C 
ATOM      4  C   UNL     1      -2.602  -2.320   0.000  0.00  0.00    +0.047 C 
ATOM      5  C   UNL     1      -1.746  -0.808   0.000  0.00  0.00    +0.210 C 
ATOM      6  C   UNL     1      -0.887  -0.306   0.000  0.00  0.00    +0.077 C 
ATOM      7  C   UNL     1      -0.021  -0.808   0.000  0.00  0.00    +0.016 A 
ATOM      8  C   UNL     1       0.865  -0.306   0.000  0.00  0.00    +0.002 A 
ATOM      9  C   UNL     1       1.758  -0.808   0.000  0.00  0.00    +0.035 A 
ATOM     10  C   UNL     1       2.643  -0.306   0.000  0.00  0.00    +0.010 A 
ATOM     11  C   UNL     1       3.491  -0.808   0.000  0.00  0.00    +0.082 A 
ATOM     12  C   UNL     1       3.491  -1.819   0.000  0.00  0.00    +0.346 A 
ATOM     13  O   UNL     1       4.346  -2.305   0.000  0.00  0.00    -0.244 OA
ATOM     14  O   UNL     1       2.643  -2.305   0.000  0.00  0.00    -0.421 OA
ATOM     15  C   UNL     1       1.758  -1.819   0.000  0.00  0.00    +0.152 A 
ATOM     16  C   UNL     1       0.865  -2.305   0.000  0.00  0.00    +0.074 A 
ATOM     17  C   UNL     1      -0.021  -1.819   0.000  0.00  0.00    +0.138 A 
ENDROOT
BRANCH   5  18
ATOM     18  O   UNL     1      -2.602  -0.306   0.000  0.00  0.00    -0.445 OA
BRANCH  18  19
ATOM     19  C   UNL     1      -2.602   0.705   0.000  0.00  0.00    +0.336 C 
ATOM     20  O   UNL     1      -1.727   1.207   0.000  0.00  0.00    -0.245 OA
BRANCH  19  21
ATOM     21  C   UNL     1      -3.468   1.207   0.000  0.00  0.00    +0.042 C 
ATOM     22  C   UNL     1      -4.308   0.690   0.000  0.00  0.00    +0.037 C 
ATOM     23  C   UNL     1      -3.468   2.221   0.000  0.00  0.00    -0.006 C 
ATOM     24  C   UNL     1      -2.602   2.723   0.000  0.00  0.00    +0.022 C 
ENDBRANCH  19  21
ENDBRANCH  18  19
ENDBRANCH   5  18
TORSDOF 3
ENDMDL
MODEL      222
REMARK  Name = methyl (10E)-10-[(4-bromophenyl)methylidene]-5a,5b,8,8,11a-pentamethyl-9-oxo-1-(prop-1-en-2-yl)-icosahydro-1H-cyclopenta[a]chrysene-3a-carboxylate
REMARK  4 active torsions:
REMARK  status: ('A' for Active; 'I' for Inactive)
REMARK    1  A    between atoms: C_4  and  C_14
REMARK    2  A    between atoms: C_13  and  C_24
REMARK    3  A    between atoms: C_14  and  O_32
REMARK    4  A    between atoms: C_15  and  C_27
REMARK                            x       y       z     vdW  Elec       q    Type
REMARK                         _______ _______ _______ _____ _____    ______ ____
ROOT
ATOM      1  C   UNL     1      -1.324  -1.193   0.000  0.00  0.00    +0.005 C 
ATOM      2  C   UNL     1      -1.324  -0.191   0.000  0.00  0.00    +0.000 C 
ATOM      3  C   UNL     1      -2.192  -0.692   0.000  0.00  0.00    +0.029 C 
ATOM      4  C   UNL     1      -3.052  -1.193   0.000  0.00  0.00    +0.012 C 
ATOM      5  C   UNL     1      -3.912  -0.744   0.000  0.00  0.00    -0.001 C 
ATOM      6  C   UNL     1      -3.052  -2.143   0.000  0.00  0.00    +0.168 C 
ATOM      7  C   UNL     1      -2.192  -2.682   0.000  0.00  0.00    +0.055 C 
ATOM      8  C   UNL     1      -3.142  -3.295   0.000  0.00  0.00    +0.008 C 
ATOM      9  C   UNL     1      -1.668  -3.527   0.000  0.00  0.00    +0.008 C 
ATOM     10  O   UNL     1      -4.077  -2.682   0.000  0.00  0.00    -0.292 OA
ATOM     11  C   UNL     1      -1.324  -2.143   0.000  0.00  0.00    +0.007 C 
ATOM     12  C   UNL     1      -0.449  -2.644   0.000  0.00  0.00    +0.000 C 
ATOM     13  C   UNL     1       0.411  -2.143   0.000  0.00  0.00    +0.000 C 
ATOM     14  C   UNL     1       0.411  -1.193   0.000  0.00  0.00    +0.000 C 
ATOM     15  C   UNL     1       0.411  -0.295   0.000  0.00  0.00    +0.000 C 
ATOM     16  C   UNL     1       1.257  -0.692   0.000  0.00  0.00    +0.000 C 
ATOM     17  C   UNL     1       1.257   0.348   0.000  0.00  0.00    +0.001 C 
ATOM     18  C   UNL     1       0.382   0.834   0.000  0.00  0.00    +0.000 C 
ATOM     19  C   UNL     1      -0.449   0.318   0.000  0.00  0.00    +0.000 C 
ATOM     20  C   UNL     1       2.117   0.856   0.000  0.00  0.00    +0.014 C 
ATOM     21  C   UNL     1       2.356   1.859   0.000  0.00  0.00    +0.019 C 
ATOM     22  C   UNL     1       3.344   1.949   0.000  0.00  0.00    +0.005 C 
ATOM     23  C   UNL     1       3.755   1.036   0.000  0.00  0.00    +0.011 C 
ATOM     24  C   UNL     1       3.000   0.348   0.000  0.00  0.00    +0.090 C 
ATOM     25  C   UNL     1       3.000  -0.654   0.000  0.00  0.00    +0.011 C 
ATOM     26  C   UNL     1       1.257  -1.642   0.000  0.00  0.00    +0.000 C 
ATOM     27  C   UNL     1       2.117  -1.141   0.000  0.00  0.00    +0.001 C 
ATOM     28  C   UNL     1      -0.449  -0.692   0.000  0.00  0.00    +0.000 C 
ENDROOT
BRANCH   5  29
ATOM     29  C   UNL     1      -3.912   0.243   0.000  0.00  0.00    -0.000 A 
ATOM     30  C   UNL     1      -4.758   0.729   0.000  0.00  0.00    +0.000 A 
ATOM     31  C   UNL     1      -4.758   1.732   0.000  0.00  0.00    +0.007 A 
ATOM     32  C   UNL     1      -3.875   2.233   0.000  0.00  0.00    +0.035 A 
ATOM     33  C   UNL     1      -3.052   1.754   0.000  0.00  0.00    +0.007 A 
ATOM     34 BR   UNL     1      -3.875   3.280   0.000  0.00  0.00    -0.049 Br
ATOM     35  C   UNL     1      -3.052   0.744   0.000  0.00  0.00    +0.000 A 
ENDBRANCH   5  29
BRANCH  21  36
ATOM     36  C   UNL     1       1.706   2.592   0.000  0.00  0.00    -0.044 C 
ATOM     37  C   UNL     1       0.741   2.435   0.000  0.00  0.00    +0.026 C 
ATOM     38  C   UNL     1       2.050   3.527   0.000  0.00  0.00    -0.009 C 
ENDBRANCH  21  36
BRANCH  24  39
ATOM     39  C   UNL     1       3.897  -0.191   0.000  0.00  0.00    +0.316 C 
ATOM     40  O   UNL     1       3.912  -1.178   0.000  0.00  0.00    -0.250 OA
BRANCH  39  41
ATOM     41  O   UNL     1       4.758   0.295   0.000  0.00  0.00    -0.444 OA
ATOM     42  C   UNL     1       4.758   1.283   0.000  0.00  0.00    +0.256 C 
ENDBRANCH  39  41
ENDBRANCH  24  39
TORSDOF 4
ENDMDL
MODEL      223
REMARK  Name = methyl (9E)-9-(hydroxyimino)-5a,5b,8,8,11a-pentamethyl-1-(prop-1-en-2-yl)-icosahydro-1H-cyclopenta[a]chrysene-3a-carboxylate
REMARK  3 active torsions:
REMARK  status: ('A' for Active; 'I' for Inactive)
REMARK    1  A    between atoms: C_4  and  C_11
REMARK    2  A    between atoms: C_10  and  C_22
REMARK    3  A    between atoms: C_11  and  O_30
REMARK                            x       y       z     vdW  Elec       q    Type
REMARK                         _______ _______ _______ _____ _____    ______ ____
ROOT
ATOM      1  C   UNL     1       1.267  -0.784   0.000  0.00  0.00    +0.000 C 
ATOM      2  C   UNL     1       1.267  -1.720   0.000  0.00  0.00    +0.000 C 
ATOM      3  C   UNL     1       2.138  -1.288   0.000  0.00  0.00    +0.001 C 
ATOM      4  C   UNL     1       3.031  -0.784   0.000  0.00  0.00    +0.011 C 
ATOM      5  C   UNL     1       3.031   0.242   0.000  0.00  0.00    +0.090 C 
ATOM      6  C   UNL     1       2.138   0.733   0.000  0.00  0.00    +0.014 C 
ATOM      7  C   UNL     1       2.373   1.737   0.000  0.00  0.00    +0.019 C 
ATOM      8  C   UNL     1       3.360   1.831   0.000  0.00  0.00    +0.005 C 
ATOM      9  C   UNL     1       3.757   0.878   0.000  0.00  0.00    +0.011 C 
ATOM     10  C   UNL     1       1.267   0.242   0.000  0.00  0.00    +0.001 C 
ATOM     11  C   UNL     1       0.387   0.754   0.000  0.00  0.00    +0.000 C 
ATOM     12  C   UNL     1      -0.497   0.242   0.000  0.00  0.00    +0.000 C 
ATOM     13  C   UNL     1      -0.497  -0.784   0.000  0.00  0.00    +0.000 C 
ATOM     14  C   UNL     1      -1.369  -1.288   0.000  0.00  0.00    +0.001 C 
ATOM     15  C   UNL     1      -1.369  -2.322   0.000  0.00  0.00    +0.005 C 
ATOM     16  C   UNL     1      -2.262  -2.826   0.000  0.00  0.00    +0.035 C 
ATOM     17  C   UNL     1      -2.929  -3.441   0.000  0.00  0.00    +0.006 C 
ATOM     18  C   UNL     1      -1.596  -3.441   0.000  0.00  0.00    +0.006 C 
ATOM     19  C   UNL     1      -3.142  -2.322   0.000  0.00  0.00    +0.079 C 
ATOM     20  C   UNL     1      -3.142  -1.288   0.000  0.00  0.00    +0.045 C 
ATOM     21  N   UNL     1      -3.992  -2.835   0.000  0.00  0.00    -0.038 NA
ATOM     22  O   UNL     1      -4.855  -2.352   0.000  0.00  0.00    -0.144 OA
ATOM     23  C   UNL     1      -0.497  -2.826   0.000  0.00  0.00    +0.000 C 
ATOM     24  C   UNL     1       0.395  -2.322   0.000  0.00  0.00    +0.000 C 
ATOM     25  C   UNL     1      -1.369  -0.404   0.000  0.00  0.00    +0.000 C 
ATOM     26  C   UNL     1      -2.262  -0.784   0.000  0.00  0.00    +0.006 C 
ATOM     27  C   UNL     1       0.404  -1.288   0.000  0.00  0.00    +0.000 C 
ATOM     28  C   UNL     1       0.395  -0.374   0.000  0.00  0.00    +0.000 C 
ENDROOT
BRANCH   7  29
ATOM     29  C   UNL     1       1.728   2.506   0.000  0.00  0.00    -0.044 C 
ATOM     30  C   UNL     1       0.746   2.343   0.000  0.00  0.00    +0.026 C 
ATOM     31  C   UNL     1       2.078   3.441   0.000  0.00  0.00    -0.009 C 
ENDBRANCH   7  29
BRANCH   5  32
ATOM     32  C   UNL     1       3.954  -0.263   0.000  0.00  0.00    +0.316 C 
ATOM     33  O   UNL     1       4.005  -1.258   0.000  0.00  0.00    -0.250 OA
BRANCH  32  34
ATOM     34  O   UNL     1       4.825   0.199   0.000  0.00  0.00    -0.444 OA
ATOM     35  C   UNL     1       4.855   1.194   0.000  0.00  0.00    +0.256 C 
ENDBRANCH  32  34
ENDBRANCH   5  32
TORSDOF 3
ENDMDL
MODEL      224
REMARK  Name = (10E)-10-[(2-methoxyphenyl)methylidene]-5a,5b,8,8,11a-pentamethyl-9-oxo-1-(prop-1-en-2-yl)-icosahydro-1H-cyclopenta[a]chrysene-3a-carboxylic acid
REMARK  4 active torsions:
REMARK  status: ('A' for Active; 'I' for Inactive)
REMARK    1  A    between atoms: C_4  and  C_15
REMARK    2  A    between atoms: C_13  and  C_25
REMARK    3  A    between atoms: C_14  and  C_24
REMARK    4  A    between atoms: C_28  and  O_36
REMARK                            x       y       z     vdW  Elec       q    Type
REMARK                         _______ _______ _______ _____ _____    ______ ____
ROOT
ATOM      1  C   UNL     1      -0.514  -1.285   0.000  0.00  0.00    +0.005 C 
ATOM      2  C   UNL     1      -0.514  -0.406   0.000  0.00  0.00    +0.000 C 
ATOM      3  C   UNL     1      -1.408  -0.787   0.000  0.00  0.00    +0.029 C 
ATOM      4  C   UNL     1      -2.292  -1.285   0.000  0.00  0.00    +0.013 C 
ATOM      5  C   UNL     1      -3.137  -0.778   0.000  0.00  0.00    +0.002 C 
ATOM      6  C   UNL     1      -2.292  -2.328   0.000  0.00  0.00    +0.168 C 
ATOM      7  C   UNL     1      -1.408  -2.826   0.000  0.00  0.00    +0.055 C 
ATOM      8  C   UNL     1      -0.737  -3.444   0.000  0.00  0.00    +0.008 C 
ATOM      9  C   UNL     1      -2.070  -3.444   0.000  0.00  0.00    +0.008 C 
ATOM     10  O   UNL     1      -3.137  -2.840   0.000  0.00  0.00    -0.292 OA
ATOM     11  C   UNL     1      -0.514  -2.328   0.000  0.00  0.00    +0.007 C 
ATOM     12  C   UNL     1       0.355  -2.826   0.000  0.00  0.00    +0.000 C 
ATOM     13  C   UNL     1       1.248  -2.328   0.000  0.00  0.00    +0.000 C 
ATOM     14  C   UNL     1       1.258  -1.285   0.000  0.00  0.00    +0.000 C 
ATOM     15  C   UNL     1       1.248  -0.382   0.000  0.00  0.00    +0.000 C 
ATOM     16  C   UNL     1       2.127  -0.787   0.000  0.00  0.00    +0.000 C 
ATOM     17  C   UNL     1       2.127   0.232   0.000  0.00  0.00    +0.001 C 
ATOM     18  C   UNL     1       1.234   0.753   0.000  0.00  0.00    +0.000 C 
ATOM     19  C   UNL     1       0.355   0.232   0.000  0.00  0.00    +0.000 C 
ATOM     20  C   UNL     1       2.997   0.729   0.000  0.00  0.00    +0.014 C 
ATOM     21  C   UNL     1       3.229   1.739   0.000  0.00  0.00    +0.019 C 
ATOM     22  C   UNL     1       4.214   1.831   0.000  0.00  0.00    +0.005 C 
ATOM     23  C   UNL     1       4.610   0.869   0.000  0.00  0.00    +0.011 C 
ATOM     24  C   UNL     1       3.890   0.232   0.000  0.00  0.00    +0.094 C 
ATOM     25  C   UNL     1       3.890  -0.787   0.000  0.00  0.00    +0.011 C 
ATOM     26  C   UNL     1       2.127  -1.724   0.000  0.00  0.00    +0.000 C 
ATOM     27  C   UNL     1       2.997  -1.285   0.000  0.00  0.00    +0.001 C 
ATOM     28  C   UNL     1       0.355  -0.787   0.000  0.00  0.00    +0.000 C 
ENDROOT
BRANCH   5  29
ATOM     29  C   UNL     1      -3.123   0.232   0.000  0.00  0.00    +0.034 A 
ATOM     30  C   UNL     1      -2.229   0.729   0.000  0.00  0.00    +0.003 A 
ATOM     31  C   UNL     1      -2.210   1.739   0.000  0.00  0.00    +0.000 A 
ATOM     32  C   UNL     1      -3.065   2.251   0.000  0.00  0.00    +0.003 A 
ATOM     33  C   UNL     1      -3.924   1.763   0.000  0.00  0.00    +0.037 A 
ATOM     34  C   UNL     1      -3.949   0.768   0.000  0.00  0.00    +0.139 A 
BRANCH  34  35
ATOM     35  O   UNL     1      -4.818   0.290   0.000  0.00  0.00    -0.471 OA
ATOM     36  C   UNL     1      -5.673   0.802   0.000  0.00  0.00    +0.252 C 
ENDBRANCH  34  35
ENDBRANCH   5  29
BRANCH  21  37
ATOM     37  C   UNL     1       2.582   2.507   0.000  0.00  0.00    -0.044 C 
ATOM     38  C   UNL     1       1.596   2.342   0.000  0.00  0.00    +0.026 C 
ATOM     39  C   UNL     1       2.929   3.444   0.000  0.00  0.00    -0.009 C 
ENDBRANCH  21  37
BRANCH  24  40
ATOM     40  C   UNL     1       4.803  -0.266   0.000  0.00  0.00    +0.364 C 
ATOM     41  O   UNL     1       5.673   0.232   0.000  0.00  0.00    -0.246 OA
ATOM     42  O   UNL     1       4.861  -1.261   0.000  0.00  0.00    -0.246 OA
ENDBRANCH  24  40
TORSDOF 4
ENDMDL
MODEL      225
REMARK  Name = 10-HYDROXY-6,10,23-TRIMETHYL-4-AZAHEXACYCLO[12.11.0.0^(2,11).0^(4,9).0^(15,24).0^(18,23)]PENTACOSANE-17,20-DIONE
REMARK  0 active torsions:
REMARK  status: ('A' for Active; 'I' for Inactive)
REMARK                            x       y       z     vdW  Elec       q    Type
REMARK                         _______ _______ _______ _____ _____    ______ ____
ROOT
ATOM      1  N   UNL     1       1.728   2.086   0.000  0.00  0.00    -0.277 NA
ATOM      2  C   UNL     1       1.282   3.066   0.000  0.00  0.00    +0.072 C 
ATOM      3  C   UNL     1       1.915   3.908   0.000  0.00  0.00    +0.016 C 
ATOM      4  C   UNL     1       1.492   4.888   0.000  0.00  0.00    +0.001 C 
ATOM      5  C   UNL     1       2.972   3.776   0.000  0.00  0.00    +0.002 C 
ATOM      6  C   UNL     1       3.396   2.824   0.000  0.00  0.00    +0.013 C 
ATOM      7  C   UNL     1       1.095   1.239   0.000  0.00  0.00    +0.067 C 
ATOM      8  C   UNL     1       1.547   0.292   0.000  0.00  0.00    +0.024 C 
ATOM      9  C   UNL     1       2.604   0.160   0.000  0.00  0.00    +0.039 C 
ATOM     10  C   UNL     1       3.209   1.029   0.000  0.00  0.00    +0.132 C 
ATOM     11  C   UNL     1       3.869   0.209   0.000  0.00  0.00    +0.034 C 
ATOM     12  O   UNL     1       4.057   1.690   0.000  0.00  0.00    -0.225 OA
ATOM     13  C   UNL     1       3.000  -0.765   0.000  0.00  0.00    -0.002 C 
ATOM     14  C   UNL     1       2.389  -1.640   0.000  0.00  0.00    -0.005 C 
ATOM     15  C   UNL     1       1.360  -1.536   0.000  0.00  0.00    +0.005 C 
ATOM     16  C   UNL     1       0.567  -2.246   0.000  0.00  0.00    +0.013 C 
ATOM     17  C   UNL     1      -0.358  -1.717   0.000  0.00  0.00    +0.009 C 
ATOM     18  C   UNL     1      -0.143  -0.688   0.000  0.00  0.00    -0.009 C 
ATOM     19  C   UNL     1      -1.282  -2.246   0.000  0.00  0.00    -0.000 C 
ATOM     20  C   UNL     1      -1.282  -1.189   0.000  0.00  0.00    -0.000 C 
ATOM     21  C   UNL     1      -2.180  -1.717   0.000  0.00  0.00    +0.008 C 
ATOM     22  C   UNL     1      -3.104  -2.246   0.000  0.00  0.00    +0.064 C 
ATOM     23  C   UNL     1      -3.104  -3.303   0.000  0.00  0.00    +0.151 C 
ATOM     24  C   UNL     1      -2.180  -3.831   0.000  0.00  0.00    +0.067 C 
ATOM     25  O   UNL     1      -4.057  -3.831   0.000  0.00  0.00    -0.296 OA
ATOM     26  C   UNL     1      -1.282  -3.303   0.000  0.00  0.00    +0.079 C 
ATOM     27  C   UNL     1      -0.358  -3.831   0.000  0.00  0.00    +0.146 C 
ATOM     28  O   UNL     1      -0.358  -4.888   0.000  0.00  0.00    -0.296 OA
ATOM     29  C   UNL     1       0.567  -3.303   0.000  0.00  0.00    +0.060 C 
ATOM     30  C   UNL     1       0.914  -0.584   0.000  0.00  0.00    +0.006 C 
ATOM     31  C   UNL     1       2.785   1.982   0.000  0.00  0.00    +0.102 C 
ENDROOT
TORSDOF 0
ENDMDL
MODEL      226
REMARK  Name = 4,8-dimethoxy-7-[(2,2,5,5-tetramethyl-1,3-dioxolan-4-yl)methoxy]furo[2,3-b]quinoline
REMARK  5 active torsions:
REMARK  status: ('A' for Active; 'I' for Inactive)
REMARK    1  A    between atoms: C_6  and  O_21
REMARK    2  A    between atoms: C_7  and  O_22
REMARK    3  A    between atoms: C_12  and  C_19
REMARK    4  A    between atoms: C_15  and  O_18
REMARK    5  A    between atoms: O_18  and  C_19
REMARK                            x       y       z     vdW  Elec       q    Type
REMARK                         _______ _______ _______ _____ _____    ______ ____
ROOT
ATOM      1  C   UNL     1       1.476  -0.335   0.000  0.00  0.00    +0.124 A 
ATOM      2  C   UNL     1       0.618  -0.827   0.000  0.00  0.00    +0.190 A 
ATOM      3  C   UNL     1      -0.266  -0.316   0.000  0.00  0.00    +0.174 A 
ATOM      4  C   UNL     1      -0.266   0.671   0.000  0.00  0.00    +0.040 A 
ATOM      5  C   UNL     1       0.618   1.186   0.000  0.00  0.00    +0.008 A 
ATOM      6  C   UNL     1       1.476   0.686   0.000  0.00  0.00    +0.055 A 
ATOM      7  C   UNL     1       2.353   1.186   0.000  0.00  0.00    +0.145 A 
ATOM      8  C   UNL     1       3.237   0.671   0.000  0.00  0.00    +0.091 A 
ATOM      9  C   UNL     1       3.237  -0.316   0.000  0.00  0.00    +0.233 A 
ATOM     10  O   UNL     1       4.159  -0.671   0.000  0.00  0.00    -0.433 OA
ATOM     11  C   UNL     1       4.795   0.139   0.000  0.00  0.00    +0.182 A 
ATOM     12  C   UNL     1       4.214   0.964   0.000  0.00  0.00    +0.048 A 
ATOM     13  N   UNL     1       2.353  -0.827   0.000  0.00  0.00    -0.208 NA
ENDROOT
BRANCH   2  14
ATOM     14  O   UNL     1       0.618  -1.848   0.000  0.00  0.00    -0.467 OA
ATOM     15  C   UNL     1       1.476  -2.359   0.000  0.00  0.00    +0.253 C 
ENDBRANCH   2  14
BRANCH   7  16
ATOM     16  O   UNL     1       2.353   2.192   0.000  0.00  0.00    -0.471 OA
ATOM     17  C   UNL     1       3.237   2.688   0.000  0.00  0.00    +0.252 C 
ENDBRANCH   7  16
BRANCH   3  18
ATOM     18  O   UNL     1      -1.158  -0.812   0.000  0.00  0.00    -0.470 OA
BRANCH  18  19
ATOM     19  C   UNL     1      -2.042  -0.279   0.000  0.00  0.00    +0.237 C 
BRANCH  19  20
ATOM     20  C   UNL     1      -2.919  -0.779   0.000  0.00  0.00    +0.186 C 
ATOM     21  C   UNL     1      -3.778  -0.261   0.000  0.00  0.00    +0.124 C 
ATOM     22  C   UNL     1      -3.256   0.616   0.000  0.00  0.00    +0.032 C 
ATOM     23  C   UNL     1      -4.662   0.261   0.000  0.00  0.00    +0.032 C 
ATOM     24  O   UNL     1      -4.296  -1.138   0.000  0.00  0.00    -0.337 OA
ATOM     25  C   UNL     1      -3.911  -1.922   0.000  0.00  0.00    +0.187 C 
ATOM     26  C   UNL     1      -4.795  -2.448   0.000  0.00  0.00    +0.061 C 
ATOM     27  C   UNL     1      -3.556  -2.688   0.000  0.00  0.00    +0.061 C 
ATOM     28  O   UNL     1      -2.901  -1.700   0.000  0.00  0.00    -0.331 OA
ENDBRANCH  19  20
ENDBRANCH  18  19
ENDBRANCH   3  18
TORSDOF 5
ENDMDL
MODEL      227
REMARK  Name = 2-(3,4-dihydroxyphenyl)-3,5,7-trihydroxy-8-methyl-4H-chromen-4-one
REMARK  1 active torsions:
REMARK  status: ('A' for Active; 'I' for Inactive)
REMARK    1  A    between atoms: C_4  and  C_9
REMARK                            x       y       z     vdW  Elec       q    Type
REMARK                         _______ _______ _______ _____ _____    ______ ____
ROOT
ATOM      1  C   UNL     1      -1.277  -1.255   0.000  0.00  0.00    +0.115 A 
ATOM      2  C   UNL     1      -2.147  -1.763   0.000  0.00  0.00    +0.205 A 
ATOM      3  O   UNL     1      -2.147  -2.757   0.000  0.00  0.00    -0.286 OA
ATOM      4  C   UNL     1      -3.018  -1.255   0.000  0.00  0.00    +0.084 A 
ATOM      5  C   UNL     1      -3.018  -0.256   0.000  0.00  0.00    +0.198 A 
ATOM      6  C   UNL     1      -2.147   0.252   0.000  0.00  0.00    +0.052 A 
ATOM      7  C   UNL     1      -2.147   1.250   0.000  0.00  0.00    +0.038 C 
ATOM      8  O   UNL     1      -3.888   0.230   0.000  0.00  0.00    -0.287 OA
ATOM      9  C   UNL     1      -1.277  -0.256   0.000  0.00  0.00    +0.151 A 
ATOM     10  O   UNL     1      -0.407   0.252   0.000  0.00  0.00    -0.450 OA
ATOM     11  C   UNL     1       0.459  -0.256   0.000  0.00  0.00    +0.187 A 
ATOM     12  C   UNL     1       0.459  -1.255   0.000  0.00  0.00    +0.268 A 
ATOM     13  O   UNL     1       1.330  -1.741   0.000  0.00  0.00    -0.280 OA
ATOM     14  C   UNL     1      -0.407  -1.763   0.000  0.00  0.00    +0.243 A 
ATOM     15  O   UNL     1      -0.407  -2.757   0.000  0.00  0.00    -0.283 OA
ENDROOT
BRANCH  11  16
ATOM     16  C   UNL     1       1.308   0.252   0.000  0.00  0.00    +0.041 A 
ATOM     17  C   UNL     1       2.178  -0.234   0.000  0.00  0.00    +0.007 A 
ATOM     18  C   UNL     1       3.048   0.252   0.000  0.00  0.00    +0.045 A 
ATOM     19  C   UNL     1       3.026   1.250   0.000  0.00  0.00    +0.234 A 
ATOM     20  C   UNL     1       2.156   1.758   0.000  0.00  0.00    +0.234 A 
ATOM     21  O   UNL     1       2.147   2.757   0.000  0.00  0.00    -0.283 OA
ATOM     22  O   UNL     1       3.888   1.749   0.000  0.00  0.00    -0.283 OA
ATOM     23  C   UNL     1       1.308   1.250   0.000  0.00  0.00    +0.049 A 
ENDBRANCH  11  16
TORSDOF 1
ENDMDL
MODEL      228
REMARK  Name = [3,4,5-tris(acetyloxy)-6-{4-[5,7-bis(acetyloxy)-4-oxo-4H-chromen-3-yl]phenoxy}oxan-2-yl]methyl acetate
REMARK  16 active torsions:
REMARK  status: ('A' for Active; 'I' for Inactive)
REMARK    1  A    between atoms: C_2  and  O_14
REMARK    2  A    between atoms: C_4  and  O_15
REMARK    3  A    between atoms: C_5  and  C_22
REMARK    4  A    between atoms: C_6  and  O_21
REMARK    5  A    between atoms: C_7  and  O_19
REMARK    6  A    between atoms: C_10  and  O_20
REMARK    7  A    between atoms: C_11  and  C_31
REMARK    8  A    between atoms: O_14  and  C_23
REMARK    9  A    between atoms: O_15  and  C_24
REMARK   10  A    between atoms: C_18  and  O_30
REMARK   11  A    between atoms: O_19  and  C_25
REMARK   12  A    between atoms: O_20  and  C_26
REMARK   13  A    between atoms: O_21  and  C_41
REMARK   14  A    between atoms: C_28  and  O_30
REMARK   15  A    between atoms: C_29  and  O_32
REMARK   16  A    between atoms: C_31  and  O_32
REMARK                            x       y       z     vdW  Elec       q    Type
REMARK                         _______ _______ _______ _____ _____    ______ ____
ROOT
ATOM      1  C   UNL     1      -0.573  -0.082   0.000  0.00  0.00    +0.006 A 
ATOM      2  C   UNL     1       0.341   0.463   0.000  0.00  0.00    +0.003 A 
ATOM      3  C   UNL     1       1.212  -0.082   0.000  0.00  0.00    +0.037 A 
ATOM      4  C   UNL     1       1.212  -1.111   0.000  0.00  0.00    +0.141 A 
ATOM      5  C   UNL     1       0.341  -1.635   0.000  0.00  0.00    +0.037 A 
ATOM      6  C   UNL     1      -0.573  -1.111   0.000  0.00  0.00    +0.003 A 
ENDROOT
BRANCH   1   9
ATOM      7  C   UNL     1      -2.371  -0.082   0.000  0.00  0.00    +0.205 A 
ATOM      8  O   UNL     1      -2.357  -1.063   0.000  0.00  0.00    -0.286 OA
ATOM      9  C   UNL     1      -1.485   0.463   0.000  0.00  0.00    +0.077 A 
ATOM     10  C   UNL     1      -1.485   1.526   0.000  0.00  0.00    +0.183 A 
ATOM     11  O   UNL     1      -2.371   2.016   0.000  0.00  0.00    -0.450 OA
ATOM     12  C   UNL     1      -3.256   1.492   0.000  0.00  0.00    +0.154 A 
ATOM     13  C   UNL     1      -4.169   2.016   0.000  0.00  0.00    +0.075 A 
ATOM     14  C   UNL     1      -5.055   1.526   0.000  0.00  0.00    +0.155 A 
ATOM     15  C   UNL     1      -5.055   0.463   0.000  0.00  0.00    +0.075 A 
ATOM     16  C   UNL     1      -4.169  -0.082   0.000  0.00  0.00    +0.157 A 
ATOM     17  C   UNL     1      -3.256   0.463   0.000  0.00  0.00    +0.108 A 
BRANCH  14  18
ATOM     18  O   UNL     1      -5.934   2.112   0.000  0.00  0.00    -0.424 OA
BRANCH  18  19
ATOM     19  C   UNL     1      -6.867   1.669   0.000  0.00  0.00    +0.322 C 
ATOM     20  C   UNL     1      -7.752   2.228   0.000  0.00  0.00    +0.122 C 
ATOM     21  O   UNL     1      -6.853   0.708   0.000  0.00  0.00    -0.250 OA
ENDBRANCH  18  19
ENDBRANCH  14  18
BRANCH  16  22
ATOM     22  O   UNL     1      -4.156  -1.076   0.000  0.00  0.00    -0.424 OA
BRANCH  22  23
ATOM     23  C   UNL     1      -5.102  -1.601   0.000  0.00  0.00    +0.322 C 
ATOM     24  C   UNL     1      -6.015  -1.111   0.000  0.00  0.00    +0.122 C 
ATOM     25  O   UNL     1      -5.102  -2.582   0.000  0.00  0.00    -0.250 OA
ENDBRANCH  22  23
ENDBRANCH  16  22
ENDBRANCH   1   9
BRANCH   4  26
ATOM     26  O   UNL     1       1.996  -1.567   0.000  0.00  0.00    -0.458 OA
BRANCH  26  27
ATOM     27  C   UNL     1       2.439  -0.749   0.000  0.00  0.00    +0.353 C 
ATOM     28  O   UNL     1       3.256  -1.798   0.000  0.00  0.00    -0.327 OA
ATOM     29  C   UNL     1       4.755  -1.730   0.000  0.00  0.00    +0.219 C 
ATOM     30  C   UNL     1       5.463  -0.654   0.000  0.00  0.00    +0.254 C 
ATOM     31  C   UNL     1       4.728   0.218   0.000  0.00  0.00    +0.266 C 
ATOM     32  C   UNL     1       3.188   0.198   0.000  0.00  0.00    +0.289 C 
BRANCH  31  33
ATOM     33  O   UNL     1       5.348   0.068   0.000  0.00  0.00    -0.453 OA
BRANCH  33  34
ATOM     34  C   UNL     1       5.654   0.851   0.000  0.00  0.00    +0.317 C 
ATOM     35  C   UNL     1       6.526   1.035   0.000  0.00  0.00    +0.121 C 
ATOM     36  O   UNL     1       5.382   1.771   0.000  0.00  0.00    -0.250 OA
ENDBRANCH  33  34
ENDBRANCH  31  33
BRANCH  30  37
ATOM     37  O   UNL     1       6.199  -0.082   0.000  0.00  0.00    -0.454 OA
BRANCH  37  38
ATOM     38  C   UNL     1       7.064  -0.409   0.000  0.00  0.00    +0.317 C 
ATOM     39  C   UNL     1       7.752   0.245   0.000  0.00  0.00    +0.121 C 
ATOM     40  O   UNL     1       7.391  -1.145   0.000  0.00  0.00    -0.250 OA
ENDBRANCH  37  38
ENDBRANCH  30  37
BRANCH  32  41
ATOM     41  O   UNL     1       2.875   1.260   0.000  0.00  0.00    -0.451 OA
BRANCH  41  42
ATOM     42  C   UNL     1       3.420   2.159   0.000  0.00  0.00    +0.317 C 
ATOM     43  C   UNL     1       4.156   2.343   0.000  0.00  0.00    +0.121 C 
ATOM     44  O   UNL     1       2.684   3.025   0.000  0.00  0.00    -0.250 OA
ENDBRANCH  41  42
ENDBRANCH  32  41
BRANCH  29  45
ATOM     45  C   UNL     1       4.755  -2.616   0.000  0.00  0.00    +0.235 C 
BRANCH  45  46
ATOM     46  O   UNL     1       5.804  -3.025   0.000  0.00  0.00    -0.446 OA
BRANCH  46  47
ATOM     47  C   UNL     1       6.621  -2.548   0.000  0.00  0.00    +0.318 C 
ATOM     48  C   UNL     1       7.452  -2.990   0.000  0.00  0.00    +0.121 C 
ATOM     49  O   UNL     1       6.635  -1.635   0.000  0.00  0.00    -0.250 OA
ENDBRANCH  46  47
ENDBRANCH  45  46
ENDBRANCH  29  45
ENDBRANCH  26  27
ENDBRANCH   4  26
TORSDOF 16
ENDMDL
MODEL      229
REMARK  Name = (2-{[9a-formyl-3a,5a-dihydroxy-11a-methyl-1-(5-oxo-2,5-dihydrofuran-3-yl)-hexadecahydro-1H-cyclopenta[a]phenanthren-7-yl]oxy}-2-oxoethyl)trimethylazanium
REMARK  6 active torsions:
REMARK  status: ('A' for Active; 'I' for Inactive)
REMARK    1  A    between atoms: C_2  and  C_23
REMARK    2  A    between atoms: C_7  and  C_8
REMARK    3  A    between atoms: C_16  and  O_24
REMARK    4  A    between atoms: C_16  and  C_26
REMARK    5  A    between atoms: N_22  and  C_26
REMARK    6  A    between atoms: O_24  and  C_25
REMARK                            x       y       z     vdW  Elec       q    Type
REMARK                         _______ _______ _______ _____ _____    ______ ____
ROOT
ATOM      1  C   UNL     1       2.703  -0.444   0.000  0.00  0.00    +0.123 C 
ATOM      2  O   UNL     1       2.685  -1.702   0.000  0.00  0.00    -0.226 OA
ATOM      3  C   UNL     1       3.604  -0.740   0.000  0.00  0.00    +0.030 C 
ATOM      4  C   UNL     1       4.152   0.043   0.000  0.00  0.00    +0.007 C 
ATOM      5  C   UNL     1       3.604   0.783   0.000  0.00  0.00    +0.024 C 
ATOM      6  C   UNL     1       1.847  -0.931   0.000  0.00  0.00    +0.038 C 
ATOM      7  C   UNL     1       1.847  -1.911   0.000  0.00  0.00    +0.001 C 
ATOM      8  C   UNL     1       1.033  -2.367   0.000  0.00  0.00    +0.031 C 
ATOM      9  C   UNL     1       0.170  -1.911   0.000  0.00  0.00    +0.136 C 
ATOM     10  C   UNL     1       0.170  -0.931   0.000  0.00  0.00    +0.081 C 
ATOM     11  C   UNL     1      -0.700  -0.444   0.000  0.00  0.00    +0.013 C 
ATOM     12  C   UNL     1      -1.483  -0.931   0.000  0.00  0.00    +0.044 C 
ATOM     13  C   UNL     1      -1.483  -1.911   0.000  0.00  0.00    +0.172 C 
ATOM     14  O   UNL     1       0.170  -3.169   0.000  0.00  0.00    -0.225 OA
ATOM     15  C   UNL     1      -0.700  -2.367   0.000  0.00  0.00    +0.074 C 
ATOM     16  C   UNL     1       1.033  -0.444   0.000  0.00  0.00    +0.021 C 
ATOM     17  C   UNL     1       1.033   0.530   0.000  0.00  0.00    -0.004 C 
ATOM     18  C   UNL     1       1.847   1.005   0.000  0.00  0.00    +0.002 C 
ATOM     19  C   UNL     1       2.703   0.530   0.000  0.00  0.00    +0.029 C 
ATOM     20  C   UNL     1       2.685   1.702   0.000  0.00  0.00    +0.003 C 
ENDROOT
BRANCH   5  21
ATOM     21  C   UNL     1       3.930   1.776   0.000  0.00  0.00    +0.005 C 
ATOM     22  C   UNL     1       4.935   2.115   0.000  0.00  0.00    +0.231 C 
ATOM     23  O   UNL     1       4.923   3.138   0.000  0.00  0.00    -0.441 OA
ATOM     24  C   UNL     1       3.918   3.477   0.000  0.00  0.00    +0.341 C 
ATOM     25  O   UNL     1       3.573   4.500   0.000  0.00  0.00    -0.245 OA
ATOM     26  C   UNL     1       3.295   2.590   0.000  0.00  0.00    +0.077 C 
ENDBRANCH   5  21
BRANCH  10  27
ATOM     27  C   UNL     1       0.170   0.043   0.000  0.00  0.00    +0.209 C 
ATOM     28  O   UNL     1      -0.700   0.530   0.000  0.00  0.00    -0.288 OA
ENDBRANCH  10  27
BRANCH  13  29
ATOM     29  O   UNL     1      -2.315  -2.454   0.000  0.00  0.00    -0.448 OA
BRANCH  29  30
ATOM     30  C   UNL     1      -3.215  -2.010   0.000  0.00  0.00    +0.374 C 
ATOM     31  O   UNL     1      -3.215  -1.005   0.000  0.00  0.00    -0.243 OA
BRANCH  30  32
ATOM     32  C   UNL     1      -4.060  -2.528   0.000  0.00  0.00    +0.220 C 
BRANCH  32  33
ATOM     33  N   UNL     1      -4.047  -3.520   0.000  0.00  0.00    +0.319 N 
ATOM     34  C   UNL     1      -4.935  -4.069   0.000  0.00  0.00    +0.172 C 
ATOM     35  C   UNL     1      -3.986  -4.500   0.000  0.00  0.00    +0.172 C 
ATOM     36  C   UNL     1      -3.184  -3.909   0.000  0.00  0.00    +0.172 C 
ENDBRANCH  32  33
ENDBRANCH  30  32
ENDBRANCH  29  30
ENDBRANCH  13  29
TORSDOF 6
ENDMDL
MODEL      230
REMARK  Name = 5-methyl-1-{[(2-nitrophenyl)amino]methyl}-decahydroquinolizin-5-ium
REMARK  4 active torsions:
REMARK  status: ('A' for Active; 'I' for Inactive)
REMARK    1  A    between atoms: N_1  and  C_3
REMARK    2  A    between atoms: N_6  and  C_7
REMARK    3  A    between atoms: N_6  and  C_10
REMARK    4  A    between atoms: C_8  and  C_10
REMARK                            x       y       z     vdW  Elec       q    Type
REMARK                         _______ _______ _______ _____ _____    ______ ____
ROOT
ATOM      1  C   UNL     1      -0.431   0.746   0.000  0.00  0.00    +0.118 C 
ENDROOT
BRANCH   1   2
ATOM      2  C   UNL     1      -0.426  -0.257   0.000  0.00  0.00    +0.071 C 
ATOM      3  C   UNL     1       0.436  -0.756   0.000  0.00  0.00    +0.014 C 
ATOM      4  C   UNL     1       0.441  -1.760   0.000  0.00  0.00    +0.061 C 
ATOM      5  C   UNL     1      -0.426  -2.264   0.000  0.00  0.00    +0.108 C 
ATOM      6  N   UNL     1      -1.288  -1.765   0.000  0.00  0.00    +0.297 N 
ATOM      7  C   UNL     1      -2.160  -2.264   0.000  0.00  0.00    +0.108 C 
ATOM      8  C   UNL     1      -3.023  -1.765   0.000  0.00  0.00    +0.061 C 
ATOM      9  C   UNL     1      -3.023  -0.761   0.000  0.00  0.00    +0.012 C 
ATOM     10  C   UNL     1      -2.160  -0.252   0.000  0.00  0.00    +0.055 C 
ATOM     11  C   UNL     1      -1.293  -2.758   0.000  0.00  0.00    +0.170 C 
ATOM     12  C   UNL     1      -1.293  -0.761   0.000  0.00  0.00    +0.060 C 
ENDBRANCH   1   2
BRANCH   1  13
ATOM     13  N   UNL     1       0.431   1.245   0.000  0.00  0.00    -0.232 NA
BRANCH  13  19
ATOM     14  C   UNL     1       2.155   1.250   0.000  0.00  0.00    +0.304 A 
ATOM     15  C   UNL     1       3.018   0.756   0.000  0.00  0.00    +0.077 A 
ATOM     16  C   UNL     1       3.023  -0.247   0.000  0.00  0.00    +0.006 A 
ATOM     17  C   UNL     1       2.160  -0.751   0.000  0.00  0.00    +0.002 A 
ATOM     18  C   UNL     1       1.293  -0.252   0.000  0.00  0.00    +0.022 A 
ATOM     19  C   UNL     1       1.298   0.746   0.000  0.00  0.00    +0.135 A 
BRANCH  14  20
ATOM     20  N   UNL     1       2.145   2.254   0.000  0.00  0.00    +0.082 N 
ATOM     21  O   UNL     1       1.278   2.748   0.000  0.00  0.00    +0.042 OA
ATOM     22  O   UNL     1       3.007   2.758   0.000  0.00  0.00    -0.576 OA
ENDBRANCH  14  20
ENDBRANCH  13  19
ENDBRANCH   1  13
TORSDOF 4
ENDMDL
MODEL      231
REMARK  Name = (6bS,12bS,14bS)-4,4,6b,8a,11,11,12b,14b-octamethyl-1,2,3,4,4a,5,6,6b,7,8,8a,9,10,11,12,12a,12b,13,14,14b-icosahydro-3-picenol
REMARK  0 active torsions:
REMARK  status: ('A' for Active; 'I' for Inactive)
REMARK                            x       y       z     vdW  Elec       q    Type
REMARK                         _______ _______ _______ _____ _____    ______ ____
ROOT
ATOM      1  C   UNL     1       1.202  -0.312   0.000  0.00  0.00    +0.015 C 
ATOM      2  C   UNL     1       1.202  -1.264   0.000  0.00  0.00    +0.004 C 
ATOM      3  C   UNL     1       2.022  -0.854   0.000  0.00  0.00    +0.004 C 
ATOM      4  C   UNL     1       2.855  -0.363   0.000  0.00  0.00    +0.000 C 
ATOM      5  C   UNL     1       2.855   0.611   0.000  0.00  0.00    +0.000 C 
ATOM      6  C   UNL     1       2.022   1.059   0.000  0.00  0.00    +0.000 C 
ATOM      7  C   UNL     1       2.022   2.067   0.000  0.00  0.00    +0.000 C 
ATOM      8  C   UNL     1       2.855   2.516   0.000  0.00  0.00    +0.000 C 
ATOM      9  C   UNL     1       3.692   2.067   0.000  0.00  0.00    +0.000 C 
ATOM     10  C   UNL     1       3.837   3.152   0.000  0.00  0.00    +0.000 C 
ATOM     11  C   UNL     1       1.950   3.101   0.000  0.00  0.00    +0.000 C 
ATOM     12  C   UNL     1       4.034   0.137   0.000  0.00  0.00    +0.000 C 
ATOM     13  C   UNL     1       3.692   1.059   0.000  0.00  0.00    +0.000 C 
ATOM     14  C   UNL     1       1.202   0.611   0.000  0.00  0.00    +0.003 C 
ATOM     15  C   UNL     1       1.215   1.533   0.000  0.00  0.00    +0.000 C 
ATOM     16  C   UNL     1       0.323   1.132   0.000  0.00  0.00    +0.005 C 
ATOM     17  C   UNL     1      -0.540   0.632   0.000  0.00  0.00    +0.021 C 
ATOM     18  C   UNL     1      -0.540  -0.312   0.000  0.00  0.00    -0.053 C 
ATOM     19  C   UNL     1      -1.399  -0.854   0.000  0.00  0.00    +0.015 C 
ATOM     20  C   UNL     1      -1.399  -1.811   0.000  0.00  0.00    +0.006 C 
ATOM     21  C   UNL     1      -2.262  -2.311   0.000  0.00  0.00    +0.028 C 
ATOM     22  C   UNL     1      -2.804  -3.152   0.000  0.00  0.00    +0.003 C 
ATOM     23  C   UNL     1      -1.881  -3.152   0.000  0.00  0.00    +0.003 C 
ATOM     24  C   UNL     1      -3.030  -1.811   0.000  0.00  0.00    +0.152 C 
ATOM     25  C   UNL     1      -3.030  -0.854   0.000  0.00  0.00    +0.033 C 
ATOM     26  O   UNL     1      -4.034  -2.332   0.000  0.00  0.00    -0.223 OA
ATOM     27  C   UNL     1      -0.540  -2.311   0.000  0.00  0.00    +0.005 C 
ATOM     28  C   UNL     1       0.323  -1.811   0.000  0.00  0.00    +0.021 C 
ATOM     29  C   UNL     1      -1.399   0.342   0.000  0.00  0.00    +0.004 C 
ATOM     30  C   UNL     1      -2.262  -0.312   0.000  0.00  0.00    +0.006 C 
ATOM     31  C   UNL     1       0.323  -0.854   0.000  0.00  0.00    -0.053 C 
ENDROOT
TORSDOF 0
ENDMDL
MODEL      232
REMARK  Name = methyl (5R,9R,13R,18R)-20-isopropyl-5,9-dimethyl-14,17-dioxopentacyclo[10.6.2.0~1,10~.0~4,9~.0~13,18~]icos-19-ene-5-carboxylate
REMARK  3 active torsions:
REMARK  status: ('A' for Active; 'I' for Inactive)
REMARK    1  A    between atoms: C_5  and  C_18
REMARK    2  A    between atoms: C_10  and  C_12
REMARK    3  A    between atoms: C_12  and  O_25
REMARK                            x       y       z     vdW  Elec       q    Type
REMARK                         _______ _______ _______ _____ _____    ______ ____
ROOT
ATOM      1  C   UNL     1       0.399  -0.683   0.000  0.00  0.00    +0.021 C 
ATOM      2  C   UNL     1       0.399  -1.629   0.000  0.00  0.00    +0.004 C 
ATOM      3  C   UNL     1      -0.420  -2.111   0.000  0.00  0.00    +0.001 C 
ATOM      4  C   UNL     1      -1.239  -1.629   0.000  0.00  0.00    +0.010 C 
ATOM      5  C   UNL     1      -1.239  -0.683   0.000  0.00  0.00    +0.001 C 
ATOM      6  C   UNL     1      -1.252   0.210   0.000  0.00  0.00    +0.000 C 
ATOM      7  C   UNL     1      -2.041  -0.210   0.000  0.00  0.00    +0.000 C 
ATOM      8  C   UNL     1      -2.868  -0.683   0.000  0.00  0.00    +0.001 C 
ATOM      9  C   UNL     1      -2.868  -1.629   0.000  0.00  0.00    +0.011 C 
ATOM     10  C   UNL     1      -2.041  -2.111   0.000  0.00  0.00    +0.090 C 
ATOM     11  C   UNL     1      -2.649  -2.732   0.000  0.00  0.00    +0.011 C 
ATOM     12  C   UNL     1      -0.674   1.817   0.000  0.00  0.00    -0.035 C 
ATOM     13  C   UNL     1       0.736   2.154   0.000  0.00  0.00    -0.049 C 
ATOM     14  C   UNL     1       0.399   1.217   0.000  0.00  0.00    +0.021 C 
ATOM     15  C   UNL     1      -0.420   0.744   0.000  0.00  0.00    +0.004 C 
ATOM     16  C   UNL     1       1.230   0.744   0.000  0.00  0.00    +0.079 C 
ATOM     17  C   UNL     1       2.041   1.217   0.000  0.00  0.00    +0.147 C 
ATOM     18  C   UNL     1       2.868   0.744   0.000  0.00  0.00    +0.072 C 
ATOM     19  C   UNL     1       2.868  -0.210   0.000  0.00  0.00    +0.072 C 
ATOM     20  C   UNL     1       2.041  -0.683   0.000  0.00  0.00    +0.147 C 
ATOM     21  O   UNL     1       2.041  -1.629   0.000  0.00  0.00    -0.296 OA
ATOM     22  O   UNL     1       2.041   2.163   0.000  0.00  0.00    -0.296 OA
ATOM     23  C   UNL     1       1.230  -0.210   0.000  0.00  0.00    +0.079 C 
ATOM     24  C   UNL     1      -0.420  -0.210   0.000  0.00  0.00    +0.004 C 
ENDROOT
BRANCH  13  25
ATOM     25  C   UNL     1       0.955   2.951   0.000  0.00  0.00    +0.018 C 
ATOM     26  C   UNL     1       0.285   3.617   0.000  0.00  0.00    +0.004 C 
ATOM     27  C   UNL     1       1.861   3.091   0.000  0.00  0.00    +0.004 C 
ENDBRANCH  13  25
BRANCH  10  28
ATOM     28  C   UNL     1      -1.533  -2.763   0.000  0.00  0.00    +0.316 C 
ATOM     29  O   UNL     1      -2.071  -3.595   0.000  0.00  0.00    -0.250 OA
BRANCH  28  30
ATOM     30  O   UNL     1      -0.525  -2.763   0.000  0.00  0.00    -0.444 OA
ATOM     31  C   UNL     1      -0.022  -3.617   0.000  0.00  0.00    +0.256 C 
ENDBRANCH  28  30
ENDBRANCH  10  28
TORSDOF 3
ENDMDL
MODEL      233
REMARK  Name = methyl (5R,9R)-16-chloro-20-isopropyl-5,9-dimethyl-14,17-dioxopentacyclo[10.6.2.0~1,10~.0~4,9~.0~13,18~]icosa-15,19-diene-5-carboxylate
REMARK  3 active torsions:
REMARK  status: ('A' for Active; 'I' for Inactive)
REMARK    1  A    between atoms: C_6  and  C_22
REMARK    2  A    between atoms: C_14  and  C_16
REMARK    3  A    between atoms: C_16  and  O_26
REMARK                            x       y       z     vdW  Elec       q    Type
REMARK                         _______ _______ _______ _____ _____    ______ ____
ROOT
ATOM      1  C   UNL     1      -0.033  -0.670   0.000  0.00  0.00    +0.025 C 
ATOM      2  C   UNL     1      -0.033  -1.609   0.000  0.00  0.00    +0.004 C 
ATOM      3  C   UNL     1      -0.846  -2.087   0.000  0.00  0.00    +0.001 C 
ATOM      4  C   UNL     1      -1.659  -1.609   0.000  0.00  0.00    +0.010 C 
ATOM      5  C   UNL     1      -1.659  -0.670   0.000  0.00  0.00    +0.001 C 
ATOM      6  C   UNL     1      -1.672   0.217   0.000  0.00  0.00    +0.000 C 
ATOM      7  C   UNL     1      -2.455  -0.200   0.000  0.00  0.00    +0.000 C 
ATOM      8  C   UNL     1      -3.277  -0.670   0.000  0.00  0.00    +0.001 C 
ATOM      9  C   UNL     1      -3.277  -1.609   0.000  0.00  0.00    +0.011 C 
ATOM     10  C   UNL     1      -2.455  -2.087   0.000  0.00  0.00    +0.090 C 
ATOM     11  C   UNL     1      -3.059  -2.705   0.000  0.00  0.00    +0.011 C 
ATOM     12  C   UNL     1      -1.098   1.813   0.000  0.00  0.00    -0.035 C 
ATOM     13  C   UNL     1       0.302   2.148   0.000  0.00  0.00    -0.049 C 
ATOM     14  C   UNL     1      -0.033   1.218   0.000  0.00  0.00    +0.026 C 
ATOM     15  C   UNL     1       0.794   0.748   0.000  0.00  0.00    +0.073 C 
ATOM     16  C   UNL     1       1.598   1.218   0.000  0.00  0.00    +0.174 C 
ATOM     17  C   UNL     1       2.420   0.748   0.000  0.00  0.00    +0.052 C 
ATOM     18  C   UNL     1       2.420  -0.200   0.000  0.00  0.00    +0.095 C 
ATOM     19 CL   UNL     1       3.277  -0.700   0.000  0.00  0.00    -0.079 Cl
ATOM     20  C   UNL     1       1.598  -0.670   0.000  0.00  0.00    +0.184 C 
ATOM     21  O   UNL     1       1.598  -1.609   0.000  0.00  0.00    -0.290 OA
ATOM     22  O   UNL     1       1.598   2.157   0.000  0.00  0.00    -0.291 OA
ATOM     23  C   UNL     1      -0.846   0.748   0.000  0.00  0.00    +0.005 C 
ATOM     24  C   UNL     1      -0.846  -0.200   0.000  0.00  0.00    +0.004 C 
ATOM     25  C   UNL     1       0.794  -0.200   0.000  0.00  0.00    +0.074 C 
ENDROOT
BRANCH  13  26
ATOM     26  C   UNL     1       0.520   2.940   0.000  0.00  0.00    +0.018 C 
ATOM     27  C   UNL     1       1.420   3.079   0.000  0.00  0.00    +0.004 C 
ATOM     28  C   UNL     1      -0.146   3.601   0.000  0.00  0.00    +0.004 C 
ENDBRANCH  13  26
BRANCH  10  29
ATOM     29  C   UNL     1      -1.950  -2.735   0.000  0.00  0.00    +0.316 C 
ATOM     30  O   UNL     1      -2.485  -3.562   0.000  0.00  0.00    -0.250 OA
BRANCH  29  31
ATOM     31  O   UNL     1      -0.950  -2.735   0.000  0.00  0.00    -0.444 OA
ATOM     32  C   UNL     1      -0.450  -3.601   0.000  0.00  0.00    +0.256 C 
ENDBRANCH  29  31
ENDBRANCH  10  29
TORSDOF 3
ENDMDL
MODEL      234
REMARK  Name = methyl (10E)-10-[(2-methoxyphenyl)methylidene]-5a,5b,8,8,11a-pentamethyl-9-oxo-1-(prop-1-en-2-yl)-icosahydro-1H-cyclopenta[a]chrysene-3a-carboxylate
REMARK  5 active torsions:
REMARK  status: ('A' for Active; 'I' for Inactive)
REMARK    1  A    between atoms: C_4  and  C_15
REMARK    2  A    between atoms: C_13  and  C_16
REMARK    3  A    between atoms: C_14  and  C_26
REMARK    4  A    between atoms: C_15  and  O_34
REMARK    5  A    between atoms: C_24  and  O_37
REMARK                            x       y       z     vdW  Elec       q    Type
REMARK                         _______ _______ _______ _____ _____    ______ ____
ROOT
ATOM      1  C   UNL     1      -0.905  -1.197   0.000  0.00  0.00    +0.005 C 
ATOM      2  C   UNL     1      -0.905  -0.191   0.000  0.00  0.00    +0.000 C 
ATOM      3  C   UNL     1      -1.770  -0.694   0.000  0.00  0.00    +0.029 C 
ATOM      4  C   UNL     1      -2.636  -1.197   0.000  0.00  0.00    +0.013 C 
ATOM      5  C   UNL     1      -3.496  -0.744   0.000  0.00  0.00    +0.002 C 
ATOM      6  C   UNL     1      -2.636  -2.148   0.000  0.00  0.00    +0.168 C 
ATOM      7  C   UNL     1      -1.770  -2.686   0.000  0.00  0.00    +0.055 C 
ATOM      8  C   UNL     1      -2.726  -3.299   0.000  0.00  0.00    +0.008 C 
ATOM      9  C   UNL     1      -1.247  -3.531   0.000  0.00  0.00    +0.008 C 
ATOM     10  O   UNL     1      -3.662  -2.686   0.000  0.00  0.00    -0.292 OA
ATOM     11  C   UNL     1      -0.905  -2.148   0.000  0.00  0.00    +0.007 C 
ATOM     12  C   UNL     1      -0.030  -2.651   0.000  0.00  0.00    +0.000 C 
ATOM     13  C   UNL     1       0.835  -2.148   0.000  0.00  0.00    +0.000 C 
ATOM     14  C   UNL     1       0.835  -1.197   0.000  0.00  0.00    +0.000 C 
ATOM     15  C   UNL     1       0.835  -0.297   0.000  0.00  0.00    +0.000 C 
ATOM     16  C   UNL     1       1.680  -0.694   0.000  0.00  0.00    +0.000 C 
ATOM     17  C   UNL     1       1.680   0.347   0.000  0.00  0.00    +0.001 C 
ATOM     18  C   UNL     1       0.805   0.835   0.000  0.00  0.00    +0.000 C 
ATOM     19  C   UNL     1      -0.030   0.317   0.000  0.00  0.00    +0.000 C 
ATOM     20  C   UNL     1       2.540   0.855   0.000  0.00  0.00    +0.014 C 
ATOM     21  C   UNL     1       2.781   1.861   0.000  0.00  0.00    +0.019 C 
ATOM     22  C   UNL     1       3.767   1.952   0.000  0.00  0.00    +0.005 C 
ATOM     23  C   UNL     1       4.180   1.036   0.000  0.00  0.00    +0.011 C 
ATOM     24  C   UNL     1       3.425   0.347   0.000  0.00  0.00    +0.090 C 
ATOM     25  C   UNL     1       3.425  -0.659   0.000  0.00  0.00    +0.011 C 
ATOM     26  C   UNL     1       1.680  -1.645   0.000  0.00  0.00    +0.000 C 
ATOM     27  C   UNL     1       2.540  -1.142   0.000  0.00  0.00    +0.001 C 
ATOM     28  C   UNL     1      -0.030  -0.694   0.000  0.00  0.00    +0.000 C 
ENDROOT
BRANCH   5  29
ATOM     29  C   UNL     1      -3.496   0.241   0.000  0.00  0.00    +0.034 A 
ATOM     30  C   UNL     1      -2.636   0.744   0.000  0.00  0.00    +0.003 A 
ATOM     31  C   UNL     1      -2.636   1.755   0.000  0.00  0.00    +0.000 A 
ATOM     32  C   UNL     1      -3.455   2.233   0.000  0.00  0.00    +0.003 A 
ATOM     33  C   UNL     1      -4.341   1.730   0.000  0.00  0.00    +0.037 A 
ATOM     34  C   UNL     1      -4.341   0.730   0.000  0.00  0.00    +0.139 A 
BRANCH  34  35
ATOM     35  O   UNL     1      -5.186   0.206   0.000  0.00  0.00    -0.471 OA
ATOM     36  C   UNL     1      -5.166  -0.785   0.000  0.00  0.00    +0.252 C 
ENDBRANCH  34  35
ENDBRANCH   5  29
BRANCH  21  37
ATOM     37  C   UNL     1       2.128   2.595   0.000  0.00  0.00    -0.044 C 
ATOM     38  C   UNL     1       1.162   2.434   0.000  0.00  0.00    +0.026 C 
ATOM     39  C   UNL     1       2.475   3.531   0.000  0.00  0.00    -0.009 C 
ENDBRANCH  21  37
BRANCH  24  40
ATOM     40  C   UNL     1       4.321  -0.191   0.000  0.00  0.00    +0.316 C 
ATOM     41  O   UNL     1       4.336  -1.182   0.000  0.00  0.00    -0.250 OA
BRANCH  40  42
ATOM     42  O   UNL     1       5.186   0.297   0.000  0.00  0.00    -0.444 OA
ATOM     43  C   UNL     1       5.186   1.283   0.000  0.00  0.00    +0.256 C 
ENDBRANCH  40  42
ENDBRANCH  24  40
TORSDOF 5
ENDMDL
MODEL      235
REMARK  Name = 1-[(1,3-dioxo-2,3-dihydro-1H-isoindol-2-yl)methyl]-5-methyl-decahydroquinolizin-5-ium
REMARK  2 active torsions:
REMARK  status: ('A' for Active; 'I' for Inactive)
REMARK    1  A    between atoms: N_1  and  C_7
REMARK    2  A    between atoms: C_7  and  C_8
REMARK                            x       y       z     vdW  Elec       q    Type
REMARK                         _______ _______ _______ _____ _____    ______ ____
ROOT
ATOM      1  C   UNL     1      -0.673   0.461   0.000  0.00  0.00    +0.107 C 
ENDROOT
BRANCH   1   2
ATOM      2  N   UNL     1       0.189   0.966   0.000  0.00  0.00    -0.223 N 
ATOM      3  C   UNL     1       0.290   1.959   0.000  0.00  0.00    +0.255 C 
ATOM      4  O   UNL     1      -0.456   2.624   0.000  0.00  0.00    -0.269 OA
ATOM      5  C   UNL     1       1.263   2.171   0.000  0.00  0.00    +0.058 A 
ATOM      6  C   UNL     1       1.767   1.303   0.000  0.00  0.00    +0.058 A 
ATOM      7  C   UNL     1       2.766   1.303   0.000  0.00  0.00    +0.005 A 
ATOM      8  C   UNL     1       3.265   2.171   0.000  0.00  0.00    +0.000 A 
ATOM      9  C   UNL     1       2.761   3.038   0.000  0.00  0.00    +0.000 A 
ATOM     10  C   UNL     1       1.757   3.038   0.000  0.00  0.00    +0.005 A 
ATOM     11  C   UNL     1       1.097   0.562   0.000  0.00  0.00    +0.255 C 
ATOM     12  O   UNL     1       1.308  -0.416   0.000  0.00  0.00    -0.269 OA
ENDBRANCH   1   2
BRANCH   1  13
ATOM     13  C   UNL     1      -0.668  -0.542   0.000  0.00  0.00    +0.070 C 
ATOM     14  C   UNL     1       0.194  -1.041   0.000  0.00  0.00    +0.014 C 
ATOM     15  C   UNL     1       0.199  -2.045   0.000  0.00  0.00    +0.061 C 
ATOM     16  C   UNL     1      -0.668  -2.549   0.000  0.00  0.00    +0.108 C 
ATOM     17  N   UNL     1      -1.530  -2.050   0.000  0.00  0.00    +0.297 N 
ATOM     18  C   UNL     1      -2.402  -2.549   0.000  0.00  0.00    +0.108 C 
ATOM     19  C   UNL     1      -3.265  -2.050   0.000  0.00  0.00    +0.061 C 
ATOM     20  C   UNL     1      -3.265  -1.041   0.000  0.00  0.00    +0.012 C 
ATOM     21  C   UNL     1      -2.402  -0.542   0.000  0.00  0.00    +0.055 C 
ATOM     22  C   UNL     1      -1.535  -3.038   0.000  0.00  0.00    +0.170 C 
ATOM     23  C   UNL     1      -1.535  -1.041   0.000  0.00  0.00    +0.060 C 
ENDBRANCH   1  13
TORSDOF 2
ENDMDL
MODEL      236
REMARK  Name = 5-methyl-1-[(2-methylbenzoyloxy)methyl]-decahydroquinolizin-5-ium
REMARK  4 active torsions:
REMARK  status: ('A' for Active; 'I' for Inactive)
REMARK    1  A    between atoms: C_2  and  C_4
REMARK    2  A    between atoms: C_2  and  O_6
REMARK    3  A    between atoms: C_5  and  C_7
REMARK    4  A    between atoms: O_6  and  C_7
REMARK                            x       y       z     vdW  Elec       q    Type
REMARK                         _______ _______ _______ _____ _____    ______ ____
ROOT
ATOM      1  N   UNL     1      -1.720  -1.760   0.000  0.00  0.00    +0.297 N 
ATOM      2  C   UNL     1      -2.592  -2.259   0.000  0.00  0.00    +0.108 C 
ATOM      3  C   UNL     1      -3.459  -1.760   0.000  0.00  0.00    +0.061 C 
ATOM      4  C   UNL     1      -3.459  -0.752   0.000  0.00  0.00    +0.012 C 
ATOM      5  C   UNL     1      -2.592  -0.252   0.000  0.00  0.00    +0.055 C 
ATOM      6  C   UNL     1      -1.725  -2.748   0.000  0.00  0.00    +0.170 C 
ATOM      7  C   UNL     1      -0.857  -2.259   0.000  0.00  0.00    +0.108 C 
ATOM      8  C   UNL     1       0.010  -1.755   0.000  0.00  0.00    +0.061 C 
ATOM      9  C   UNL     1       0.005  -0.752   0.000  0.00  0.00    +0.016 C 
ATOM     10  C   UNL     1      -0.857  -0.252   0.000  0.00  0.00    +0.094 C 
ATOM     11  C   UNL     1      -1.725  -0.752   0.000  0.00  0.00    +0.062 C 
ENDROOT
BRANCH  10  12
ATOM     12  C   UNL     1      -0.862   0.751   0.000  0.00  0.00    +0.214 C 
BRANCH  12  13
ATOM     13  O   UNL     1       0.000   1.251   0.000  0.00  0.00    -0.445 OA
BRANCH  13  14
ATOM     14  C   UNL     1       0.867   0.751   0.000  0.00  0.00    +0.341 C 
ATOM     15  O   UNL     1       0.867  -0.247   0.000  0.00  0.00    -0.245 OA
BRANCH  14  16
ATOM     16  C   UNL     1       1.730   1.251   0.000  0.00  0.00    +0.072 A 
ATOM     17  C   UNL     1       1.730   2.249   0.000  0.00  0.00    +0.006 A 
ATOM     18  C   UNL     1       2.587   2.748   0.000  0.00  0.00    +0.000 A 
ATOM     19  C   UNL     1       3.459   2.249   0.000  0.00  0.00    -0.000 A 
ATOM     20  C   UNL     1       3.459   1.251   0.000  0.00  0.00    -0.004 A 
ATOM     21  C   UNL     1       2.597   0.751   0.000  0.00  0.00    -0.016 A 
ATOM     22  C   UNL     1       2.597  -0.247   0.000  0.00  0.00    +0.031 C 
ENDBRANCH  14  16
ENDBRANCH  13  14
ENDBRANCH  12  13
ENDBRANCH  10  12
TORSDOF 4
ENDMDL
MODEL      237
REMARK  Name = 6-OXO-N-(PROP-2-EN-1-YL)-7,11-DIAZATRICYCLO[7.3.1.0^(2,7)]TRIDECA-2,4-DIENE-11-CARBOTHIOAMIDE
REMARK  4 active torsions:
REMARK  status: ('A' for Active; 'I' for Inactive)
REMARK    1  A    between atoms: N_3  and  C_5
REMARK    2  A    between atoms: C_5  and  N_17
REMARK    3  A    between atoms: N_17  and  C_20
REMARK    4  A    between atoms: C_18  and  C_20
REMARK                            x       y       z     vdW  Elec       q    Type
REMARK                         _______ _______ _______ _____ _____    ______ ____
ROOT
ATOM      1  N   UNL     1      -1.736  -0.758   0.000  0.00  0.00    -0.299 N 
ATOM      2  C   UNL     1      -0.876  -1.256   0.000  0.00  0.00    +0.110 C 
ATOM      3  C   UNL     1       0.000  -0.758   0.000  0.00  0.00    +0.043 C 
ATOM      4  C   UNL     1       0.000   0.239   0.000  0.00  0.00    +0.011 C 
ATOM      5  C   UNL     1      -0.866   0.753   0.000  0.00  0.00    +0.058 C 
ATOM      6  C   UNL     1       0.000   1.251   0.000  0.00  0.00    +0.098 C 
ATOM      7  N   UNL     1       0.861   0.753   0.000  0.00  0.00    -0.290 N 
ATOM      8  C   UNL     1       0.861  -0.244   0.000  0.00  0.00    +0.094 C 
ATOM      9  C   UNL     1      -2.597  -1.251   0.000  0.00  0.00    +0.261 A 
ATOM     10  O   UNL     1      -2.597  -2.253   0.000  0.00  0.00    -0.267 OA
ATOM     11  C   UNL     1      -3.458  -0.758   0.000  0.00  0.00    +0.061 A 
ATOM     12  C   UNL     1      -3.458   0.244   0.000  0.00  0.00    +0.006 A 
ATOM     13  C   UNL     1      -2.597   0.753   0.000  0.00  0.00    +0.013 A 
ATOM     14  C   UNL     1      -1.736   0.244   0.000  0.00  0.00    +0.041 A 
ENDROOT
BRANCH   7  15
ATOM     15  C   UNL     1       1.732   1.251   0.000  0.00  0.00    +0.154 C 
ATOM     16  S   UNL     1       1.736   2.253   0.000  0.00  0.00    -0.017 S 
BRANCH  15  17
ATOM     17  N   UNL     1       2.597   0.753   0.000  0.00  0.00    -0.213 NA
BRANCH  17  18
ATOM     18  C   UNL     1       2.597  -0.254   0.000  0.00  0.00    +0.140 C 
BRANCH  18  19
ATOM     19  C   UNL     1       3.458  -0.758   0.000  0.00  0.00    -0.003 C 
ATOM     20  C   UNL     1       3.453  -1.754   0.000  0.00  0.00    -0.003 C 
ENDBRANCH  18  19
ENDBRANCH  17  18
ENDBRANCH  15  17
ENDBRANCH   7  15
TORSDOF 4
ENDMDL
MODEL      238
REMARK  Name = 3,3,6a,8,10b-pentamethyl-decahydro-1H-dispiro[naphtho[2,1-d][1,3]dioxine-7,2':5',3''-bis(oxolane)]-5''-one
REMARK  0 active torsions:
REMARK  status: ('A' for Active; 'I' for Inactive)
REMARK                            x       y       z     vdW  Elec       q    Type
REMARK                         _______ _______ _______ _____ _____    ______ ____
ROOT
ATOM      1  C   UNL     1      -0.265   0.497   0.000  0.00  0.00    +0.023 C 
ATOM      2  C   UNL     1      -0.288   1.632   0.000  0.00  0.00    +0.002 C 
ATOM      3  C   UNL     1      -1.112   0.984   0.000  0.00  0.00    +0.005 C 
ATOM      4  C   UNL     1      -1.968   0.497   0.000  0.00  0.00    +0.030 C 
ATOM      5  C   UNL     1      -1.968  -0.449   0.000  0.00  0.00    +0.120 C 
ATOM      6  C   UNL     1      -1.112  -0.946   0.000  0.00  0.00    +0.053 C 
ATOM      7  C   UNL     1      -0.430  -1.391   0.000  0.00  0.00    +0.005 C 
ATOM      8  C   UNL     1      -1.850  -1.363   0.000  0.00  0.00    +0.147 C 
ATOM      9  O   UNL     1      -2.176  -2.172   0.000  0.00  0.00    -0.334 OA
ATOM     10  C   UNL     1      -3.369  -1.571   0.000  0.00  0.00    +0.187 C 
ATOM     11  C   UNL     1      -4.253  -0.790   0.000  0.00  0.00    +0.061 C 
ATOM     12  C   UNL     1      -3.752  -2.413   0.000  0.00  0.00    +0.061 C 
ATOM     13  O   UNL     1      -2.929  -0.449   0.000  0.00  0.00    -0.337 OA
ATOM     14  C   UNL     1      -0.265  -0.449   0.000  0.00  0.00    +0.007 C 
ATOM     15  C   UNL     1       0.563  -0.946   0.000  0.00  0.00    +0.000 C 
ATOM     16  C   UNL     1       1.381  -0.449   0.000  0.00  0.00    +0.002 C 
ATOM     17  C   UNL     1       1.381   0.497   0.000  0.00  0.00    +0.025 C 
ATOM     18  C   UNL     1       2.252   0.099   0.000  0.00  0.00    +0.002 C 
ATOM     19  C   UNL     1       0.563   0.984   0.000  0.00  0.00    +0.093 C 
ATOM     20  C   UNL     1       0.563   1.935   0.000  0.00  0.00    +0.030 C 
ATOM     21  C   UNL     1       1.381   2.413   0.000  0.00  0.00    +0.034 C 
ATOM     22  C   UNL     1       2.233   1.935   0.000  0.00  0.00    +0.143 C 
ATOM     23  C   UNL     1       3.047   2.413   0.000  0.00  0.00    +0.236 C 
ATOM     24  O   UNL     1       3.865   1.935   0.000  0.00  0.00    -0.446 OA
ATOM     25  C   UNL     1       3.615   1.008   0.000  0.00  0.00    +0.320 C 
ATOM     26  O   UNL     1       4.253   0.019   0.000  0.00  0.00    -0.250 OA
ATOM     27  C   UNL     1       2.233   0.984   0.000  0.00  0.00    +0.140 C 
ATOM     28  O   UNL     1       1.400   1.438   0.000  0.00  0.00    -0.359 OA
ENDROOT
TORSDOF 0
ENDMDL
MODEL      239
REMARK  Name = N-(6-METHOXY-1,3-BENZOTHIAZOL-2-YL)-2-{6-OXO-7,11-DIAZATRICYCLO[7.3.1.0^(2,7)]TRIDECA-2,4-DIEN-11-YL}ACETAMIDE
REMARK  3 active torsions:
REMARK  status: ('A' for Active; 'I' for Inactive)
REMARK    1  A    between atoms: N_13  and  C_14
REMARK    2  A    between atoms: C_14  and  C_15
REMARK    3  A    between atoms: C_24  and  O_27
REMARK                            x       y       z     vdW  Elec       q    Type
REMARK                         _______ _______ _______ _____ _____    ______ ____
ROOT
ATOM      1  C   UNL     1      -0.740   1.756   0.000  0.00  0.00    +0.161 C 
ENDROOT
BRANCH   1  10
ATOM      2  C   UNL     1      -5.930   0.748   0.000  0.00  0.00    +0.006 A 
ATOM      3  C   UNL     1      -5.930  -0.256   0.000  0.00  0.00    +0.061 A 
ATOM      4  C   UNL     1      -5.063  -0.752   0.000  0.00  0.00    +0.261 A 
ATOM      5  O   UNL     1      -5.062  -1.756   0.000  0.00  0.00    -0.267 OA
ATOM      6  N   UNL     1      -4.202  -0.256   0.000  0.00  0.00    -0.299 N 
ATOM      7  C   UNL     1      -4.197   0.748   0.000  0.00  0.00    +0.041 A 
ATOM      8  C   UNL     1      -3.331   1.248   0.000  0.00  0.00    +0.054 C 
ATOM      9  C   UNL     1      -2.468   1.756   0.000  0.00  0.00    +0.078 C 
ATOM     10  N   UNL     1      -1.607   1.249   0.000  0.00  0.00    -0.265 NA
ATOM     11  C   UNL     1      -1.601   0.246   0.000  0.00  0.00    +0.074 C 
ATOM     12  C   UNL     1      -2.468  -0.263   0.000  0.00  0.00    +0.039 C 
ATOM     13  C   UNL     1      -2.463   0.740   0.000  0.00  0.00    +0.011 C 
ATOM     14  C   UNL     1      -3.340  -0.759   0.000  0.00  0.00    +0.110 C 
ATOM     15  C   UNL     1      -5.063   1.254   0.000  0.00  0.00    +0.013 A 
ENDBRANCH   1  10
BRANCH   1  16
ATOM     16  C   UNL     1       0.127   1.254   0.000  0.00  0.00    +0.264 C 
ATOM     17  N   UNL     1       0.996   1.755   0.000  0.00  0.00    -0.153 NA
ATOM     18  C   UNL     1       1.860   1.254   0.000  0.00  0.00    +0.186 A 
ATOM     19  N   UNL     1       2.773   1.659   0.000  0.00  0.00    -0.223 NA
ATOM     20  C   UNL     1       3.439   0.916   0.000  0.00  0.00    +0.089 A 
ATOM     21  C   UNL     1       4.429   0.915   0.000  0.00  0.00    +0.023 A 
ATOM     22  C   UNL     1       4.926   0.057   0.000  0.00  0.00    +0.038 A 
ATOM     23  C   UNL     1       4.427  -0.808   0.000  0.00  0.00    +0.139 A 
ATOM     24  C   UNL     1       3.432  -0.805   0.000  0.00  0.00    +0.045 A 
ATOM     25  C   UNL     1       2.938   0.056   0.000  0.00  0.00    +0.053 A 
ATOM     26  S   UNL     1       1.962   0.262   0.000  0.00  0.00    -0.050 S 
ATOM     27  O   UNL     1       0.126   0.251   0.000  0.00  0.00    -0.271 OA
BRANCH  23  28
ATOM     28  O   UNL     1       4.928  -1.678   0.000  0.00  0.00    -0.471 OA
ATOM     29  C   UNL     1       5.930  -1.675   0.000  0.00  0.00    +0.252 C 
ENDBRANCH  23  28
ENDBRANCH   1  16
TORSDOF 3
ENDMDL
MODEL      240
REMARK  Name = [(1S)-1-hydroxy-2,3,5,7a-tetrahydro-1H-pyrrolizin-7-yl]methyl 2-hydroxy-2-isopropyl-3-methoxybutanoate
REMARK  7 active torsions:
REMARK  status: ('A' for Active; 'I' for Inactive)
REMARK    1  A    between atoms: C_1  and  C_4
REMARK    2  A    between atoms: C_1  and  C_14
REMARK    3  A    between atoms: C_1  and  C_15
REMARK    4  A    between atoms: C_2  and  C_11
REMARK    5  A    between atoms: C_4  and  O_7
REMARK    6  A    between atoms: O_7  and  C_11
REMARK    7  A    between atoms: C_14  and  O_18
REMARK                            x       y       z     vdW  Elec       q    Type
REMARK                         _______ _______ _______ _____ _____    ______ ____
ROOT
ATOM      1  C   UNL     1       0.608  -0.071   0.000  0.00  0.00    +0.347 C 
ATOM      2  O   UNL     1       0.108  -0.941   0.000  0.00  0.00    -0.247 OA
ENDROOT
BRANCH   1   3
ATOM      3  C   UNL     1       1.608  -0.071   0.000  0.00  0.00    +0.239 C 
ATOM      4  O   UNL     1       1.608   0.929   0.000  0.00  0.00    -0.212 OA
BRANCH   3   5
ATOM      5  C   UNL     1       1.608  -1.071   0.000  0.00  0.00    +0.041 C 
ATOM      6  C   UNL     1       2.478  -1.570   0.000  0.00  0.00    +0.003 C 
ATOM      7  C   UNL     1       0.746  -1.570   0.000  0.00  0.00    +0.003 C 
ENDBRANCH   3   5
BRANCH   3   8
ATOM      8  C   UNL     1       2.608  -0.071   0.000  0.00  0.00    +0.154 C 
ATOM      9  C   UNL     1       3.108  -0.933   0.000  0.00  0.00    +0.035 C 
BRANCH   8  10
ATOM     10  O   UNL     1       3.103   0.804   0.000  0.00  0.00    -0.350 OA
ATOM     11  C   UNL     1       4.103   0.804   0.000  0.00  0.00    +0.174 C 
ENDBRANCH   8  10
ENDBRANCH   3   8
ENDBRANCH   1   3
BRANCH   1  12
ATOM     12  O   UNL     1       0.108   0.791   0.000  0.00  0.00    -0.442 OA
BRANCH  12  13
ATOM     13  C   UNL     1      -0.891   0.791   0.000  0.00  0.00    +0.232 C 
BRANCH  13  14
ATOM     14  C   UNL     1      -1.483  -0.021   0.000  0.00  0.00    +0.013 C 
ATOM     15  C   UNL     1      -1.179  -0.971   0.000  0.00  0.00    -0.012 C 
ATOM     16  C   UNL     1      -1.983  -1.558   0.000  0.00  0.00    +0.099 C 
ATOM     17  N   UNL     1      -2.791  -0.966   0.000  0.00  0.00    -0.265 NA
ATOM     18  C   UNL     1      -3.791  -0.966   0.000  0.00  0.00    +0.075 C 
ATOM     19  C   UNL     1      -4.103  -0.017   0.000  0.00  0.00    +0.052 C 
ATOM     20  C   UNL     1      -3.291   0.571   0.000  0.00  0.00    +0.172 C 
ATOM     21  O   UNL     1      -3.295   1.570   0.000  0.00  0.00    -0.221 OA
ATOM     22  C   UNL     1      -2.483  -0.017   0.000  0.00  0.00    +0.110 C 
ENDBRANCH  13  14
ENDBRANCH  12  13
ENDBRANCH   1  12
TORSDOF 7
ENDMDL
MODEL      241
REMARK  Name = 6-methoxy-2-oxo-3-[(2-oxo-2H-chromen-7-yl)oxy]-2H-chromen-7-yl acetate
REMARK  5 active torsions:
REMARK  status: ('A' for Active; 'I' for Inactive)
REMARK    1  A    between atoms: C_1  and  O_13
REMARK    2  A    between atoms: C_9  and  O_17
REMARK    3  A    between atoms: O_13  and  C_21
REMARK    4  A    between atoms: C_14  and  O_27
REMARK    5  A    between atoms: O_17  and  C_20
REMARK                            x       y       z     vdW  Elec       q    Type
REMARK                         _______ _______ _______ _____ _____    ______ ____
ROOT
ATOM      1  C   UNL     1       1.734   1.501   0.000  0.00  0.00    +0.221 A 
ATOM      2  C   UNL     1       0.867   0.996   0.000  0.00  0.00    +0.047 A 
ATOM      3  C   UNL     1       0.855   0.008   0.000  0.00  0.00    +0.041 A 
ATOM      4  C   UNL     1      -0.017  -0.488   0.000  0.00  0.00    +0.043 A 
ATOM      5  C   UNL     1      -0.029  -1.480   0.000  0.00  0.00    +0.173 A 
ATOM      6  C   UNL     1       0.842  -1.993   0.000  0.00  0.00    +0.185 A 
ATOM      7  C   UNL     1       1.705  -1.493   0.000  0.00  0.00    +0.078 A 
ATOM      8  C   UNL     1       1.722  -0.504   0.000  0.00  0.00    +0.152 A 
ATOM      9  O   UNL     1       2.585  -0.004   0.000  0.00  0.00    -0.419 OA
ATOM     10  C   UNL     1       2.597   0.996   0.000  0.00  0.00    +0.381 A 
ATOM     11  O   UNL     1       3.469   1.501   0.000  0.00  0.00    -0.241 OA
ENDROOT
BRANCH   5  12
ATOM     12  O   UNL     1      -0.892  -1.980   0.000  0.00  0.00    -0.468 OA
ATOM     13  C   UNL     1      -1.768  -1.480   0.000  0.00  0.00    +0.253 C 
ENDBRANCH   5  12
BRANCH   1  14
ATOM     14  O   UNL     1       1.734   2.501   0.000  0.00  0.00    -0.447 OA
BRANCH  14  15
ATOM     15  C   UNL     1       0.871   3.002   0.000  0.00  0.00    +0.149 A 
ATOM     16  C   UNL     1       0.871   4.002   0.000  0.00  0.00    +0.038 A 
ATOM     17  C   UNL     1      -0.004   4.503   0.000  0.00  0.00    +0.006 A 
ATOM     18  C   UNL     1      -0.867   3.998   0.000  0.00  0.00    +0.035 A 
ATOM     19  C   UNL     1      -0.867   3.002   0.000  0.00  0.00    +0.152 A 
ATOM     20  O   UNL     1      -1.734   2.501   0.000  0.00  0.00    -0.421 OA
ATOM     21  C   UNL     1      -2.593   3.010   0.000  0.00  0.00    +0.346 A 
ATOM     22  C   UNL     1      -2.593   4.002   0.000  0.00  0.00    +0.082 A 
ATOM     23  O   UNL     1      -3.469   2.522   0.000  0.00  0.00    -0.244 OA
ATOM     24  C   UNL     1      -1.730   4.494   0.000  0.00  0.00    +0.010 A 
ATOM     25  C   UNL     1      -0.004   2.501   0.000  0.00  0.00    +0.075 A 
ENDBRANCH  14  15
ENDBRANCH   1  14
BRANCH   6  26
ATOM     26  O   UNL     1       0.842  -2.993   0.000  0.00  0.00    -0.421 OA
BRANCH  26  27
ATOM     27  C   UNL     1       1.705  -3.502   0.000  0.00  0.00    +0.322 C 
ATOM     28  C   UNL     1       1.697  -4.503   0.000  0.00  0.00    +0.122 C 
ATOM     29  O   UNL     1       2.572  -2.993   0.000  0.00  0.00    -0.250 OA
ENDBRANCH  26  27
ENDBRANCH   6  26
TORSDOF 5
ENDMDL
MODEL      242
REMARK  Name = 2-(3,4-dihydroxyphenyl)-3,5,7-trihydroxy-3,4-dihydro-2H-1-benzopyran-4-one
REMARK  1 active torsions:
REMARK  status: ('A' for Active; 'I' for Inactive)
REMARK    1  A    between atoms: C_6  and  C_8
REMARK                            x       y       z     vdW  Elec       q    Type
REMARK                         _______ _______ _______ _____ _____    ______ ____
ROOT
ATOM      1  C   UNL     1       1.277   0.767   0.000  0.00  0.00    +0.110 A 
ATOM      2  C   UNL     1       2.127   1.262   0.000  0.00  0.00    +0.205 A 
ATOM      3  O   UNL     1       2.127   2.258   0.000  0.00  0.00    -0.286 OA
ATOM      4  C   UNL     1       3.007   0.767   0.000  0.00  0.00    +0.084 A 
ATOM      5  C   UNL     1       3.007  -0.235   0.000  0.00  0.00    +0.202 A 
ATOM      6  C   UNL     1       2.127  -0.730   0.000  0.00  0.00    +0.079 A 
ATOM      7  O   UNL     1       3.887  -0.730   0.000  0.00  0.00    -0.286 OA
ATOM      8  C   UNL     1       1.277  -0.235   0.000  0.00  0.00    +0.148 A 
ATOM      9  O   UNL     1       0.428  -0.730   0.000  0.00  0.00    -0.471 OA
ATOM     10  C   UNL     1      -0.452  -0.235   0.000  0.00  0.00    +0.226 C 
ATOM     11  C   UNL     1      -0.452   0.767   0.000  0.00  0.00    +0.257 C 
ATOM     12  O   UNL     1      -1.332   1.262   0.000  0.00  0.00    -0.210 OA
ATOM     13  C   UNL     1       0.428   1.262   0.000  0.00  0.00    +0.213 C 
ATOM     14  O   UNL     1       0.428   2.258   0.000  0.00  0.00    -0.288 OA
ENDROOT
BRANCH  10  15
ATOM     15  C   UNL     1      -1.302  -0.730   0.000  0.00  0.00    +0.024 A 
ATOM     16  C   UNL     1      -1.271  -1.757   0.000  0.00  0.00    +0.003 A 
ATOM     17  C   UNL     1      -2.127  -2.258   0.000  0.00  0.00    +0.045 A 
ATOM     18  C   UNL     1      -3.007  -1.757   0.000  0.00  0.00    +0.234 A 
ATOM     19  C   UNL     1      -3.007  -0.730   0.000  0.00  0.00    +0.234 A 
ATOM     20  O   UNL     1      -3.887  -0.235   0.000  0.00  0.00    -0.283 OA
ATOM     21  O   UNL     1      -3.857  -2.258   0.000  0.00  0.00    -0.283 OA
ATOM     22  C   UNL     1      -2.151  -0.235   0.000  0.00  0.00    +0.045 A 
ENDBRANCH  10  15
TORSDOF 1
ENDMDL
MODEL      243
REMARK  Name = 3a,5a-dihydroxy-7-({4-hydroxy-6-methyl-5-[(3,4,5-trihydroxyoxan-2-yl)oxy]oxan-2-yl}oxy)-11a-methyl-1-(5-oxo-2,5-dihydrofuran-3-yl)-hexadecahydro-1H-cyclopenta[a]phenanthrene-9a-carbaldehyde
REMARK  6 active torsions:
REMARK  status: ('A' for Active; 'I' for Inactive)
REMARK    1  A    between atoms: C_2  and  C_33
REMARK    2  A    between atoms: C_8  and  O_12
REMARK    3  A    between atoms: C_9  and  C_11
REMARK    4  A    between atoms: C_10  and  O_12
REMARK    5  A    between atoms: C_14  and  O_34
REMARK    6  A    between atoms: O_34  and  C_36
REMARK                            x       y       z     vdW  Elec       q    Type
REMARK                         _______ _______ _______ _____ _____    ______ ____
ROOT
ATOM      1  C   UNL     1       4.190   1.517   0.000  0.00  0.00    +0.123 C 
ATOM      2  O   UNL     1       4.171   0.453   0.000  0.00  0.00    -0.226 OA
ATOM      3  C   UNL     1       5.007   1.226   0.000  0.00  0.00    +0.030 C 
ATOM      4  C   UNL     1       5.495   1.942   0.000  0.00  0.00    +0.007 C 
ATOM      5  C   UNL     1       5.007   2.626   0.000  0.00  0.00    +0.024 C 
ATOM      6  C   UNL     1       3.430   1.061   0.000  0.00  0.00    +0.038 C 
ATOM      7  C   UNL     1       3.430   0.206   0.000  0.00  0.00    +0.001 C 
ATOM      8  C   UNL     1       2.702  -0.218   0.000  0.00  0.00    +0.031 C 
ATOM      9  C   UNL     1       1.942   0.206   0.000  0.00  0.00    +0.135 C 
ATOM     10  C   UNL     1       1.942   1.061   0.000  0.00  0.00    +0.081 C 
ATOM     11  C   UNL     1       1.162   1.517   0.000  0.00  0.00    +0.012 C 
ATOM     12  C   UNL     1       0.434   1.061   0.000  0.00  0.00    +0.030 C 
ATOM     13  C   UNL     1       0.434   0.206   0.000  0.00  0.00    +0.120 C 
ATOM     14  O   UNL     1       1.942  -0.947   0.000  0.00  0.00    -0.225 OA
ATOM     15  C   UNL     1       1.162  -0.218   0.000  0.00  0.00    +0.060 C 
ATOM     16  C   UNL     1       2.702   1.517   0.000  0.00  0.00    +0.021 C 
ATOM     17  C   UNL     1       2.702   2.366   0.000  0.00  0.00    -0.004 C 
ATOM     18  C   UNL     1       3.430   2.809   0.000  0.00  0.00    +0.002 C 
ATOM     19  C   UNL     1       4.190   2.366   0.000  0.00  0.00    +0.029 C 
ATOM     20  C   UNL     1       4.171   3.385   0.000  0.00  0.00    +0.003 C 
ENDROOT
BRANCH   5  21
ATOM     21  C   UNL     1       5.375   3.430   0.000  0.00  0.00    +0.005 C 
ATOM     22  C   UNL     1       6.223   3.569   0.000  0.00  0.00    +0.231 C 
ATOM     23  O   UNL     1       6.331   4.418   0.000  0.00  0.00    -0.441 OA
ATOM     24  C   UNL     1       5.603   4.811   0.000  0.00  0.00    +0.341 C 
ATOM     25  O   UNL     1       5.286   5.780   0.000  0.00  0.00    -0.245 OA
ATOM     26  C   UNL     1       4.982   4.190   0.000  0.00  0.00    +0.077 C 
ENDBRANCH   5  21
BRANCH  10  27
ATOM     27  C   UNL     1       1.942   1.942   0.000  0.00  0.00    +0.209 C 
ATOM     28  O   UNL     1       1.162   2.366   0.000  0.00  0.00    -0.288 OA
ENDBRANCH  10  27
BRANCH  13  29
ATOM     29  O   UNL     1      -0.339  -0.250   0.000  0.00  0.00    -0.333 OA
BRANCH  29  30
ATOM     30  C   UNL     1      -0.339  -1.447   0.000  0.00  0.00    +0.238 C 
ATOM     31  C   UNL     1      -1.073  -2.378   0.000  0.00  0.00    +0.097 C 
ATOM     32  C   UNL     1      -2.486  -2.378   0.000  0.00  0.00    +0.186 C 
ATOM     33  O   UNL     1      -2.486  -3.227   0.000  0.00  0.00    -0.220 OA
ATOM     34  C   UNL     1      -3.215  -1.447   0.000  0.00  0.00    +0.175 C 
ATOM     35  C   UNL     1      -2.486  -0.478   0.000  0.00  0.00    +0.147 C 
ATOM     36  C   UNL     1      -2.486   0.326   0.000  0.00  0.00    +0.035 C 
ATOM     37  O   UNL     1      -1.073  -0.478   0.000  0.00  0.00    -0.330 OA
BRANCH  34  38
ATOM     38  O   UNL     1      -3.215  -2.740   0.000  0.00  0.00    -0.326 OA
BRANCH  38  39
ATOM     39  C   UNL     1      -3.215  -3.880   0.000  0.00  0.00    +0.270 C 
ATOM     40  O   UNL     1      -4.019  -2.847   0.000  0.00  0.00    -0.326 OA
ATOM     41  C   UNL     1      -5.571  -2.847   0.000  0.00  0.00    +0.180 C 
ATOM     42  C   UNL     1      -6.318  -3.880   0.000  0.00  0.00    +0.214 C 
ATOM     43  C   UNL     1      -5.571  -4.899   0.000  0.00  0.00    +0.220 C 
ATOM     44  O   UNL     1      -5.571  -3.975   0.000  0.00  0.00    -0.217 OA
ATOM     45  O   UNL     1      -6.331  -4.963   0.000  0.00  0.00    -0.218 OA
ATOM     46  C   UNL     1      -4.019  -4.899   0.000  0.00  0.00    +0.241 C 
ATOM     47  O   UNL     1      -4.019  -5.780   0.000  0.00  0.00    -0.215 OA
ENDBRANCH  38  39
ENDBRANCH  34  38
ENDBRANCH  29  30
ENDBRANCH  13  29
TORSDOF 6
ENDMDL
MODEL      244
REMARK  Name = 1-(5-hydroxy-5-phenylhexan-2-yl)-9a,11a-dimethyl-1H,2H,3H,3aH,3bH,4H,6H,7H,8H,9H,9aH,9bH,10H,11H,11aH-cyclopenta[a]phenanthren-7-ol
REMARK  5 active torsions:
REMARK  status: ('A' for Active; 'I' for Inactive)
REMARK    1  A    between atoms: C_7  and  C_19
REMARK    2  A    between atoms: C_15  and  C_17
REMARK    3  A    between atoms: C_15  and  C_18
REMARK    4  A    between atoms: C_17  and  C_20
REMARK    5  A    between atoms: C_19  and  C_20
REMARK                            x       y       z     vdW  Elec       q    Type
REMARK                         _______ _______ _______ _____ _____    ______ ____
ROOT
ATOM      1  C   UNL     1      -0.423  -0.000   0.000  0.00  0.00    +0.000 C 
ATOM      2  C   UNL     1      -0.423   0.993   0.000  0.00  0.00    +0.000 C 
ATOM      3  C   UNL     1      -1.270   0.481   0.000  0.00  0.00    +0.000 C 
ATOM      4  C   UNL     1      -2.122  -0.000   0.000  0.00  0.00    +0.000 C 
ATOM      5  C   UNL     1      -2.122  -0.962   0.000  0.00  0.00    +0.004 C 
ATOM      6  C   UNL     1      -1.270  -1.449   0.000  0.00  0.00    +0.005 C 
ATOM      7  C   UNL     1      -1.270  -2.411   0.000  0.00  0.00    +0.025 C 
ATOM      8  C   UNL     1      -2.122  -2.892   0.000  0.00  0.00    -0.035 C 
ATOM      9  C   UNL     1      -2.968  -2.411   0.000  0.00  0.00    -0.047 C 
ATOM     10  C   UNL     1      -3.814  -2.892   0.000  0.00  0.00    +0.055 C 
ATOM     11  C   UNL     1      -4.661  -2.411   0.000  0.00  0.00    +0.156 C 
ATOM     12  O   UNL     1      -5.507  -2.892   0.000  0.00  0.00    -0.223 OA
ATOM     13  C   UNL     1      -4.661  -1.449   0.000  0.00  0.00    +0.034 C 
ATOM     14  C   UNL     1      -3.814  -0.962   0.000  0.00  0.00    +0.006 C 
ATOM     15  C   UNL     1      -2.968  -1.449   0.000  0.00  0.00    +0.015 C 
ATOM     16  C   UNL     1      -2.980  -0.481   0.000  0.00  0.00    +0.004 C 
ATOM     17  C   UNL     1       0.423   0.481   0.000  0.00  0.00    +0.000 C 
ATOM     18  C   UNL     1       1.270  -0.000   0.000  0.00  0.00    +0.000 C 
ATOM     19  C   UNL     1       1.270  -0.962   0.000  0.00  0.00    +0.000 C 
ATOM     20  C   UNL     1      -0.423  -0.962   0.000  0.00  0.00    +0.000 C 
ENDROOT
BRANCH  17  21
ATOM     21  C   UNL     1       0.423   1.461   0.000  0.00  0.00    +0.000 C 
ATOM     22  C   UNL     1      -0.320   2.107   0.000  0.00  0.00    +0.000 C 
BRANCH  21  23
ATOM     23  C   UNL     1       1.270   1.930   0.000  0.00  0.00    +0.003 C 
BRANCH  23  24
ATOM     24  C   UNL     1       2.103   1.449   0.000  0.00  0.00    +0.035 C 
BRANCH  24  25
ATOM     25  C   UNL     1       2.950   1.912   0.000  0.00  0.00    +0.145 C 
ATOM     26  C   UNL     1       2.962   2.892   0.000  0.00  0.00    +0.038 C 
ATOM     27  O   UNL     1       2.938   0.803   0.000  0.00  0.00    -0.221 OA
BRANCH  25  28
ATOM     28  C   UNL     1       3.784   1.400   0.000  0.00  0.00    +0.005 A 
ATOM     29  C   UNL     1       4.661   1.869   0.000  0.00  0.00    -0.002 A 
ATOM     30  C   UNL     1       5.507   1.358   0.000  0.00  0.00    -0.000 A 
ATOM     31  C   UNL     1       5.477   0.353   0.000  0.00  0.00    -0.000 A 
ATOM     32  C   UNL     1       4.588  -0.134   0.000  0.00  0.00    -0.000 A 
ATOM     33  C   UNL     1       3.754   0.408   0.000  0.00  0.00    -0.002 A 
ENDBRANCH  25  28
ENDBRANCH  24  25
ENDBRANCH  23  24
ENDBRANCH  21  23
ENDBRANCH  17  21
TORSDOF 5
ENDMDL
MODEL      245
REMARK  Name = 5-hydroxy-2-(4-hydroxyphenyl)-7-[(3,4,5-trihydroxy-6-methyloxan-2-yl)oxy]-3-[(3,4,5-trihydroxy-6-{[(3,4,5-trihydroxy-6-methyloxan-2-yl)oxy]methyl}oxan-2-yl)oxy]-4H-chromen-4-one
REMARK  8 active torsions:
REMARK  status: ('A' for Active; 'I' for Inactive)
REMARK    1  A    between atoms: C_1  and  O_12
REMARK    2  A    between atoms: C_3  and  C_31
REMARK    3  A    between atoms: C_5  and  O_12
REMARK    4  A    between atoms: C_7  and  O_29
REMARK    5  A    between atoms: C_17  and  O_32
REMARK    6  A    between atoms: C_22  and  C_34
REMARK    7  A    between atoms: C_27  and  O_29
REMARK    8  A    between atoms: O_32  and  C_34
REMARK                            x       y       z     vdW  Elec       q    Type
REMARK                         _______ _______ _______ _____ _____    ______ ____
ROOT
ATOM      1  C   UNL     1       1.695   1.563   0.000  0.00  0.00    +0.214 A 
ATOM      2  C   UNL     1       1.695   2.377   0.000  0.00  0.00    +0.182 A 
ATOM      3  O   UNL     1       0.993   2.801   0.000  0.00  0.00    -0.450 OA
ATOM      4  C   UNL     1       0.275   2.377   0.000  0.00  0.00    +0.155 A 
ATOM      5  C   UNL     1       0.275   1.563   0.000  0.00  0.00    +0.116 A 
ATOM      6  C   UNL     1      -0.437   1.180   0.000  0.00  0.00    +0.205 A 
ATOM      7  O   UNL     1      -0.437   0.341   0.000  0.00  0.00    -0.286 OA
ATOM      8  C   UNL     1      -1.129   1.563   0.000  0.00  0.00    +0.079 A 
ATOM      9  C   UNL     1      -1.129   2.377   0.000  0.00  0.00    +0.148 A 
ATOM     10  C   UNL     1      -0.437   2.801   0.000  0.00  0.00    +0.075 A 
ATOM     11  C   UNL     1       0.993   1.180   0.000  0.00  0.00    +0.238 A 
ATOM     12  O   UNL     1       0.993   0.341   0.000  0.00  0.00    -0.283 OA
ENDROOT
BRANCH   2  13
ATOM     13  C   UNL     1       2.372   2.801   0.000  0.00  0.00    +0.038 A 
ATOM     14  C   UNL     1       3.089   2.377   0.000  0.00  0.00    +0.006 A 
ATOM     15  C   UNL     1       3.806   2.801   0.000  0.00  0.00    +0.042 A 
ATOM     16  C   UNL     1       3.806   3.589   0.000  0.00  0.00    +0.196 A 
ATOM     17  C   UNL     1       3.089   4.003   0.000  0.00  0.00    +0.042 A 
ATOM     18  O   UNL     1       4.534   4.003   0.000  0.00  0.00    -0.287 OA
ATOM     19  C   UNL     1       2.372   3.589   0.000  0.00  0.00    +0.006 A 
ENDBRANCH   2  13
BRANCH   1  20
ATOM     20  O   UNL     1       2.412   1.139   0.000  0.00  0.00    -0.444 OA
BRANCH  20  21
ATOM     21  C   UNL     1       2.447  -2.740   0.000  0.00  0.00    +0.322 C 
ATOM     22  O   UNL     1       1.770  -1.841   0.000  0.00  0.00    -0.316 OA
ATOM     23  C   UNL     1       0.437  -1.841   0.000  0.00  0.00    +0.181 C 
ATOM     24  C   UNL     1      -0.245  -2.725   0.000  0.00  0.00    +0.214 C 
ATOM     25  C   UNL     1       0.422  -3.599   0.000  0.00  0.00    +0.221 C 
ATOM     26  O   UNL     1       0.422  -2.579   0.000  0.00  0.00    -0.217 OA
ATOM     27  O   UNL     1      -0.255  -1.816   0.000  0.00  0.00    -0.218 OA
ATOM     28  C   UNL     1       1.770  -3.599   0.000  0.00  0.00    +0.254 C 
ATOM     29  O   UNL     1       1.781  -4.620   0.000  0.00  0.00    -0.213 OA
BRANCH  23  30
ATOM     30  C   UNL     1       0.437  -1.286   0.000  0.00  0.00    +0.177 C 
BRANCH  30  31
ATOM     31  O   UNL     1      -0.861  -1.296   0.000  0.00  0.00    -0.326 OA
BRANCH  31  32
ATOM     32  C   UNL     1      -0.877  -0.265   0.000  0.00  0.00    +0.269 C 
ATOM     33  O   UNL     1      -1.553   0.644   0.000  0.00  0.00    -0.328 OA
ATOM     34  C   UNL     1      -2.912   0.644   0.000  0.00  0.00    +0.151 C 
ATOM     35  C   UNL     1      -2.912  -0.093   0.000  0.00  0.00    +0.035 C 
ATOM     36  C   UNL     1      -3.579  -0.240   0.000  0.00  0.00    +0.212 C 
ATOM     37  C   UNL     1      -2.912  -1.089   0.000  0.00  0.00    +0.220 C 
ATOM     38  O   UNL     1      -2.912  -1.755   0.000  0.00  0.00    -0.217 OA
ATOM     39  O   UNL     1      -3.579   0.498   0.000  0.00  0.00    -0.218 OA
ATOM     40  C   UNL     1      -1.579  -1.114   0.000  0.00  0.00    +0.241 C 
ATOM     41  O   UNL     1      -1.579  -1.755   0.000  0.00  0.00    -0.215 OA
ENDBRANCH  31  32
ENDBRANCH  30  31
ENDBRANCH  23  30
ENDBRANCH  20  21
ENDBRANCH   1  20
BRANCH   9  42
ATOM     42  O   UNL     1      -1.821   2.862   0.000  0.00  0.00    -0.450 OA
BRANCH  42  43
ATOM     43  C   UNL     1      -1.821   3.710   0.000  0.00  0.00    +0.322 C 
ATOM     44  O   UNL     1      -2.523   4.620   0.000  0.00  0.00    -0.318 OA
ATOM     45  C   UNL     1      -3.832   4.620   0.000  0.00  0.00    +0.152 C 
ATOM     46  C   UNL     1      -3.832   3.812   0.000  0.00  0.00    +0.035 C 
ATOM     47  C   UNL     1      -4.534   3.710   0.000  0.00  0.00    +0.212 C 
ATOM     48  C   UNL     1      -3.832   2.816   0.000  0.00  0.00    +0.221 C 
ATOM     49  O   UNL     1      -3.832   1.988   0.000  0.00  0.00    -0.217 OA
ATOM     50  O   UNL     1      -4.534   4.620   0.000  0.00  0.00    -0.218 OA
ATOM     51  C   UNL     1      -2.523   2.816   0.000  0.00  0.00    +0.254 C 
ATOM     52  O   UNL     1      -2.523   1.968   0.000  0.00  0.00    -0.213 OA
ENDBRANCH  42  43
ENDBRANCH   9  42
TORSDOF 8
ENDMDL
MODEL      246
REMARK  Name = 11-ETHYL-4,6,18-TRIMETHOXY-13-(METHOXYMETHYL)-11-AZAHEXACYCLO[7.7.2.1^(2,5).0^(1,10).0^(3,8).0^(13,17)]NONADECANE-8,9,16-TRIOL
REMARK  6 active torsions:
REMARK  status: ('A' for Active; 'I' for Inactive)
REMARK    1  A    between atoms: C_8  and  C_24
REMARK    2  A    between atoms: N_9  and  C_25
REMARK    3  A    between atoms: C_10  and  O_22
REMARK    4  A    between atoms: C_11  and  O_23
REMARK    5  A    between atoms: C_16  and  O_26
REMARK    6  A    between atoms: C_24  and  O_28
REMARK                            x       y       z     vdW  Elec       q    Type
REMARK                         _______ _______ _______ _____ _____    ______ ____
ROOT
ATOM      1  C   UNL     1       0.811  -1.048   0.000  0.00  0.00    +0.190 C 
ATOM      2  O   UNL     1       1.494  -1.696   0.000  0.00  0.00    -0.219 OA
ATOM      3  C   UNL     1       0.129  -1.325   0.000  0.00  0.00    +0.147 C 
ATOM      4  C   UNL     1      -0.521  -1.014   0.000  0.00  0.00    +0.037 C 
ATOM      5  C   UNL     1      -0.662  -0.318   0.000  0.00  0.00    +0.047 C 
ATOM      6  C   UNL     1      -1.365  -0.088   0.000  0.00  0.00    +0.153 C 
ATOM      7  O   UNL     1      -1.507   0.608   0.000  0.00  0.00    -0.223 OA
ATOM      8  C   UNL     1      -1.913  -0.561   0.000  0.00  0.00    +0.033 C 
ATOM      9  C   UNL     1      -1.771  -1.291   0.000  0.00  0.00    +0.006 C 
ATOM     10  C   UNL     1      -0.230   0.250   0.000  0.00  0.00    +0.009 C 
ATOM     11  C   UNL     1       0.534   0.250   0.000  0.00  0.00    +0.058 C 
ATOM     12  C   UNL     1       0.811   0.865   0.000  0.00  0.00    +0.120 C 
ATOM     13  C   UNL     1       0.047   1.352   0.000  0.00  0.00    +0.055 C 
ATOM     14  C   UNL     1       0.047   2.406   0.000  0.00  0.00    +0.120 C 
ATOM     15  C   UNL     1       2.724   1.109   0.000  0.00  0.00    +0.063 C 
ATOM     16  C   UNL     1      -0.473   0.865   0.000  0.00  0.00    +0.005 C 
ATOM     17  C   UNL     1      -1.054  -1.521   0.000  0.00  0.00    +0.045 C 
ATOM     18  C   UNL     1      -1.690  -2.089   0.000  0.00  0.00    +0.075 C 
ATOM     19  N   UNL     1      -1.311  -0.642   0.000  0.00  0.00    -0.271 NA
ATOM     20  C   UNL     1      -0.906   0.541   0.000  0.00  0.00    +0.093 C 
ATOM     21  C   UNL     1       0.973  -0.365   0.000  0.00  0.00    +0.160 C 
ATOM     22  O   UNL     1       2.028  -0.352   0.000  0.00  0.00    -0.223 OA
ENDROOT
BRANCH   3  23
ATOM     23  O   UNL     1       0.129  -2.278   0.000  0.00  0.00    -0.351 OA
ATOM     24  C   UNL     1       0.926  -2.785   0.000  0.00  0.00    +0.174 C 
ENDBRANCH   3  23
BRANCH  14  25
ATOM     25  O   UNL     1      -0.649   3.042   0.000  0.00  0.00    -0.353 OA
ATOM     26  C   UNL     1      -0.473   3.968   0.000  0.00  0.00    +0.174 C 
ENDBRANCH  14  25
BRANCH  12  27
ATOM     27  O   UNL     1       1.609   0.865   0.000  0.00  0.00    -0.353 OA
ATOM     28  C   UNL     1       1.230   1.467   0.000  0.00  0.00    +0.174 C 
ENDBRANCH  12  27
BRANCH  19  29
ATOM     29  C   UNL     1      -2.447  -0.885   0.000  0.00  0.00    +0.072 C 
ATOM     30  C   UNL     1      -2.724  -1.764   0.000  0.00  0.00    +0.019 C 
ENDBRANCH  19  29
BRANCH  17  31
ATOM     31  C   UNL     1      -0.798  -2.636   0.000  0.00  0.00    +0.144 C 
BRANCH  31  32
ATOM     32  O   UNL     1      -1.636  -3.008   0.000  0.00  0.00    -0.351 OA
ATOM     33  C   UNL     1      -1.636  -3.968   0.000  0.00  0.00    +0.174 C 
ENDBRANCH  31  32
ENDBRANCH  17  31
TORSDOF 6
ENDMDL
MODEL      247
REMARK  Name = 11-ETHYL-3,8-DIHYDROXY-4,6,16-TRIMETHOXY-11-AZAHEXACYCLO[7.7.2.1^(2,5).0^(1,10).0^(3,8).0^(13,17)]NONADECAN-13-YL 2-ACETAMIDOBENZOATE
REMARK  8 active torsions:
REMARK  status: ('A' for Active; 'I' for Inactive)
REMARK    1  A    between atoms: C_8  and  O_17
REMARK    2  A    between atoms: N_9  and  C_31
REMARK    3  A    between atoms: C_10  and  O_30
REMARK    4  A    between atoms: C_12  and  C_14
REMARK    5  A    between atoms: C_12  and  O_17
REMARK    6  A    between atoms: C_19  and  O_32
REMARK    7  A    between atoms: C_20  and  N_21
REMARK    8  A    between atoms: C_22  and  O_34
REMARK                            x       y       z     vdW  Elec       q    Type
REMARK                         _______ _______ _______ _____ _____    ______ ____
ROOT
ATOM      1  C   UNL     1       0.727   1.007   0.000  0.00  0.00    +0.177 C 
ATOM      2  O   UNL     1       1.477   0.989   0.000  0.00  0.00    -0.221 OA
ATOM      3  C   UNL     1       1.010   1.645   0.000  0.00  0.00    +0.148 C 
ATOM      4  C   UNL     1       0.213   2.171   0.000  0.00  0.00    +0.057 C 
ATOM      5  C   UNL     1      -0.337   1.657   0.000  0.00  0.00    +0.008 C 
ATOM      6  C   UNL     1       0.213   3.257   0.000  0.00  0.00    +0.120 C 
ATOM      7  C   UNL     1       3.007   1.911   0.000  0.00  0.00    +0.063 C 
ATOM      8  C   UNL     1      -0.071   1.007   0.000  0.00  0.00    +0.037 C 
ATOM      9  C   UNL     1      -0.538   0.410   0.000  0.00  0.00    +0.044 C 
ATOM     10  C   UNL     1      -1.276   0.653   0.000  0.00  0.00    +0.117 C 
ATOM     11  C   UNL     1      -1.843   0.157   0.000  0.00  0.00    +0.033 C 
ATOM     12  C   UNL     1      -1.683  -0.611   0.000  0.00  0.00    +0.044 C 
ATOM     13  C   UNL     1      -0.951  -0.854   0.000  0.00  0.00    +0.151 C 
ATOM     14  C   UNL     1      -1.601  -1.432   0.000  0.00  0.00    +0.113 C 
ATOM     15  N   UNL     1      -1.288   0.056   0.000  0.00  0.00    -0.271 NA
ATOM     16  C   UNL     1      -0.384  -0.328   0.000  0.00  0.00    +0.042 C 
ATOM     17  C   UNL     1       0.301  -0.653   0.000  0.00  0.00    +0.008 C 
ATOM     18  C   UNL     1       1.010  -0.357   0.000  0.00  0.00    +0.045 C 
ATOM     19  C   UNL     1      -0.538   1.220   0.000  0.00  0.00    +0.062 C 
ATOM     20  C   UNL     1       1.176   0.369   0.000  0.00  0.00    +0.158 C 
ATOM     21  O   UNL     1       1.902   0.369   0.000  0.00  0.00    -0.223 OA
ENDROOT
BRANCH   3  22
ATOM     22  O   UNL     1       1.831   1.645   0.000  0.00  0.00    -0.351 OA
ATOM     23  C   UNL     1       1.459   2.283   0.000  0.00  0.00    +0.174 C 
ENDBRANCH   3  22
BRANCH   6  24
ATOM     24  O   UNL     1      -0.526   3.925   0.000  0.00  0.00    -0.353 OA
ATOM     25  C   UNL     1      -0.337   4.894   0.000  0.00  0.00    +0.174 C 
ENDBRANCH   6  24
BRANCH  10  26
ATOM     26  O   UNL     1      -1.429   1.391   0.000  0.00  0.00    -0.354 OA
ATOM     27  C   UNL     1      -2.138   1.627   0.000  0.00  0.00    +0.174 C 
ENDBRANCH  10  26
BRANCH  15  28
ATOM     28  C   UNL     1      -2.392  -0.186   0.000  0.00  0.00    +0.072 C 
ATOM     29  C   UNL     1      -2.676  -1.108   0.000  0.00  0.00    +0.019 C 
ENDBRANCH  15  28
BRANCH  13  30
ATOM     30  O   UNL     1      -0.821  -1.586   0.000  0.00  0.00    -0.451 OA
BRANCH  30  31
ATOM     31  C   UNL     1       0.130  -1.917   0.000  0.00  0.00    +0.342 C 
ATOM     32  O   UNL     1       0.892  -1.261   0.000  0.00  0.00    -0.245 OA
BRANCH  31  33
ATOM     33  C   UNL     1       0.301  -2.880   0.000  0.00  0.00    +0.091 A 
ATOM     34  C   UNL     1       1.246  -3.204   0.000  0.00  0.00    +0.008 A 
ATOM     35  C   UNL     1       1.435  -4.185   0.000  0.00  0.00    +0.000 A 
ATOM     36  C   UNL     1       0.679  -4.847   0.000  0.00  0.00    +0.001 A 
ATOM     37  C   UNL     1      -0.254  -4.510   0.000  0.00  0.00    +0.017 A 
ATOM     38  C   UNL     1      -0.437  -3.529   0.000  0.00  0.00    +0.080 A 
BRANCH  38  39
ATOM     39  N   UNL     1      -1.376  -3.204   0.000  0.00  0.00    -0.179 NA
ATOM     40  C   UNL     1      -2.109  -3.854   0.000  0.00  0.00    +0.246 C 
ATOM     41  C   UNL     1      -3.007  -3.529   0.000  0.00  0.00    +0.097 C 
ATOM     42  O   UNL     1      -2.038  -4.894   0.000  0.00  0.00    -0.273 OA
ENDBRANCH  38  39
ENDBRANCH  31  33
ENDBRANCH  30  31
ENDBRANCH  13  30
TORSDOF 8
ENDMDL
MODEL      248
REMARK  Name = N-[14-(DIETHYLAMINO)-3,4,5-TRIMETHOXY-13-OXOTRICYCLO[9.5.0.0^(2,7)]HEXADECA-1(16),2,4,6,11,14-HEXAEN-10-YL]ACETAMIDE
REMARK  7 active torsions:
REMARK  status: ('A' for Active; 'I' for Inactive)
REMARK    1  A    between atoms: C_4  and  O_22
REMARK    2  A    between atoms: C_8  and  N_17
REMARK    3  A    between atoms: C_9  and  O_23
REMARK    4  A    between atoms: C_12  and  N_14
REMARK    5  A    between atoms: C_13  and  O_24
REMARK    6  A    between atoms: N_17  and  C_25
REMARK    7  A    between atoms: N_17  and  C_26
REMARK                            x       y       z     vdW  Elec       q    Type
REMARK                         _______ _______ _______ _____ _____    ______ ____
ROOT
ATOM      1  C   UNL     1       0.135  -0.092   0.000  0.00  0.00    +0.000 A 
ATOM      2  C   UNL     1      -0.499  -0.887   0.000  0.00  0.00    +0.001 A 
ATOM      3  C   UNL     1      -0.272  -1.881   0.000  0.00  0.00    +0.018 A 
ATOM      4  C   UNL     1       0.622  -2.288   0.000  0.00  0.00    +0.087 A 
ATOM      5  C   UNL     1       1.569  -1.867   0.000  0.00  0.00    +0.209 A 
ATOM      6  O   UNL     1       2.364  -2.491   0.000  0.00  0.00    -0.285 OA
ATOM      7  C   UNL     1       1.815  -0.887   0.000  0.00  0.00    +0.040 A 
ATOM      8  C   UNL     1      -0.457   0.745   0.000  0.00  0.00    +0.033 A 
ATOM      9  C   UNL     1      -0.215   1.725   0.000  0.00  0.00    -0.016 A 
ATOM     10  C   UNL     1       0.665   2.165   0.000  0.00  0.00    +0.028 C 
ATOM     11  C   UNL     1       1.588   1.730   0.000  0.00  0.00    +0.023 C 
ATOM     12  C   UNL     1       1.838   0.745   0.000  0.00  0.00    +0.113 C 
ATOM     13  C   UNL     1      -0.968   2.420   0.000  0.00  0.00    +0.036 A 
ATOM     14  C   UNL     1      -1.933   2.136   0.000  0.00  0.00    +0.175 A 
ATOM     15  C   UNL     1      -2.174   1.176   0.000  0.00  0.00    +0.206 A 
ATOM     16  C   UNL     1      -1.441   0.461   0.000  0.00  0.00    +0.175 A 
ATOM     17  C   UNL     1       1.176  -0.092   0.000  0.00  0.00    -0.007 A 
ENDROOT
BRANCH  12  18
ATOM     18  N   UNL     1       2.510  -0.073   0.000  0.00  0.00    -0.307 N 
ATOM     19  H   UNL     1       3.499   0.083   0.000  0.00  0.00    +0.149 HD
ATOM     20  C   UNL     1       2.861  -0.944   0.000  0.00  0.00    +0.223 C 
ATOM     21  C   UNL     1       3.840  -0.944   0.000  0.00  0.00    +0.095 C 
ATOM     22  O   UNL     1       2.421  -1.597   0.000  0.00  0.00    -0.275 OA
ENDBRANCH  12  18
BRANCH  15  23
ATOM     23  O   UNL     1      -3.140   0.916   0.000  0.00  0.00    -0.465 OA
ATOM     24  C   UNL     1      -3.840   1.630   0.000  0.00  0.00    +0.253 C 
ENDBRANCH  15  23
BRANCH  14  25
ATOM     25  O   UNL     1      -2.648   2.808   0.000  0.00  0.00    -0.468 OA
ATOM     26  C   UNL     1      -2.421   3.797   0.000  0.00  0.00    +0.253 C 
ENDBRANCH  14  25
BRANCH  16  27
ATOM     27  O   UNL     1      -1.692  -0.518   0.000  0.00  0.00    -0.468 OA
ATOM     28  C   UNL     1      -2.648  -0.774   0.000  0.00  0.00    +0.253 C 
ENDBRANCH  16  27
BRANCH   4  29
ATOM     29  N   UNL     1       0.603  -3.301   0.000  0.00  0.00    -0.305 N 
BRANCH  29  30
ATOM     30  C   UNL     1      -0.263  -3.797   0.000  0.00  0.00    +0.091 C 
ATOM     31  C   UNL     1      -1.067  -3.301   0.000  0.00  0.00    +0.023 C 
ENDBRANCH  29  30
BRANCH  29  32
ATOM     32  C   UNL     1       1.460  -3.797   0.000  0.00  0.00    +0.091 C 
ATOM     33  C   UNL     1       2.326  -3.310   0.000  0.00  0.00    +0.023 C 
ENDBRANCH  29  32
ENDBRANCH   4  29
TORSDOF 7
ENDMDL
MODEL      249
REMARK  Name = ethyl 3-[(10-{[4,5-bis(acetyloxy)-6-[(3-ethoxy-3-oxopropyl)carbamoyl]-3-{[3,4,5-tris(acetyloxy)-6-[(3-ethoxy-3-oxopropyl)carbamoyl]oxan-2-yl]oxy}oxan-2-yl]oxy}-2,4a,6a,6b,9,9,12a-heptamethyl-13-oxo-1, 2,3,4,4a,5,6,6a,6b,7,8,8a,9,10,11,12,12a,12b,13,14b-icosahydropicen-2-yl)formamido]propanoate
REMARK  32 active torsions:
REMARK  status: ('A' for Active; 'I' for Inactive)
REMARK    1  A    between atoms: C_5  and  O_22
REMARK    2  A    between atoms: C_6  and  C_27
REMARK    3  A    between atoms: C_7  and  C_26
REMARK    4  A    between atoms: C_8  and  O_34
REMARK    5  A    between atoms: C_9  and  O_36
REMARK    6  A    between atoms: C_10  and  O_33
REMARK    7  A    between atoms: C_11  and  O_35
REMARK    8  A    between atoms: C_12  and  O_38
REMARK    9  A    between atoms: C_13  and  O_22
REMARK   10  A    between atoms: C_15  and  O_29
REMARK   11  A    between atoms: C_24  and  C_32
REMARK   12  A    between atoms: O_29  and  C_30
REMARK   13  A    between atoms: O_33  and  C_45
REMARK   14  A    between atoms: O_34  and  C_44
REMARK   15  A    between atoms: O_35  and  C_42
REMARK   16  A    between atoms: O_36  and  C_41
REMARK   17  A    between atoms: O_38  and  C_43
REMARK   18  A    between atoms: C_46  and  C_56
REMARK   19  A    between atoms: C_46  and  O_78
REMARK   20  A    between atoms: C_47  and  C_54
REMARK   21  A    between atoms: C_47  and  O_79
REMARK   22  A    between atoms: C_48  and  C_55
REMARK   23  A    between atoms: C_48  and  O_77
REMARK   24  A    between atoms: C_54  and  C_76
REMARK   25  A    between atoms: C_55  and  C_74
REMARK   26  A    between atoms: C_56  and  C_75
REMARK   27  A    between atoms: N_68  and  C_74
REMARK   28  A    between atoms: N_69  and  C_75
REMARK   29  A    between atoms: N_70  and  C_76
REMARK   30  A    between atoms: O_77  and  C_89
REMARK   31  A    between atoms: O_78  and  C_91
REMARK   32  A    between atoms: O_79  and  C_90
REMARK                            x       y       z     vdW  Elec       q    Type
REMARK                         _______ _______ _______ _____ _____    ______ ____
ROOT
ATOM      1  C   UNL     1      -0.949   0.373   0.000  0.00  0.00    +0.268 C 
ATOM      2  O   UNL     1      -1.975   1.734   0.000  0.00  0.00    -0.318 OA
ATOM      3  C   UNL     1      -3.901   1.734   0.000  0.00  0.00    +0.238 C 
ATOM      4  C   UNL     1      -4.955   0.373   0.000  0.00  0.00    +0.247 C 
ATOM      5  C   UNL     1      -3.901  -0.862   0.000  0.00  0.00    +0.243 C 
ATOM      6  C   UNL     1      -1.975  -0.862   0.000  0.00  0.00    +0.217 C 
ENDROOT
BRANCH   3   7
ATOM      7  C   UNL     1      -3.915   2.453   0.000  0.00  0.00    +0.272 C 
ATOM      8  N   UNL     1      -4.850   2.788   0.000  0.00  0.00    -0.203 NA
ATOM      9  O   UNL     1      -3.245   2.921   0.000  0.00  0.00    -0.271 OA
BRANCH   8  10
ATOM     10  C   UNL     1      -4.850   3.723   0.000  0.00  0.00    +0.127 C 
BRANCH  10  11
ATOM     11  C   UNL     1      -4.069   4.198   0.000  0.00  0.00    +0.133 C 
BRANCH  11  12
ATOM     12  C   UNL     1      -4.069   5.168   0.000  0.00  0.00    +0.319 C 
ATOM     13  O   UNL     1      -3.210   5.649   0.000  0.00  0.00    -0.250 OA
BRANCH  12  14
ATOM     14  O   UNL     1      -4.850   5.649   0.000  0.00  0.00    -0.448 OA
BRANCH  14  15
ATOM     15  C   UNL     1      -5.674   5.133   0.000  0.00  0.00    +0.209 C 
ATOM     16  C   UNL     1      -6.525   5.649   0.000  0.00  0.00    +0.051 C 
ENDBRANCH  14  15
ENDBRANCH  12  14
ENDBRANCH  11  12
ENDBRANCH  10  11
ENDBRANCH   8  10
ENDBRANCH   3   7
BRANCH   5  17
ATOM     17  O   UNL     1      -3.901  -0.059   0.000  0.00  0.00    -0.446 OA
BRANCH  17  18
ATOM     18  C   UNL     1      -3.210   0.324   0.000  0.00  0.00    +0.318 C 
ATOM     19  C   UNL     1      -3.196   1.162   0.000  0.00  0.00    +0.121 C 
ATOM     20  O   UNL     1      -2.492  -0.011   0.000  0.00  0.00    -0.250 OA
ENDBRANCH  17  18
ENDBRANCH   5  17
BRANCH   6  21
ATOM     21  O   UNL     1      -1.989  -2.670   0.000  0.00  0.00    -0.321 OA
BRANCH  21  22
ATOM     22  C   UNL     1      -1.989  -4.631   0.000  0.00  0.00    +0.281 C 
ATOM     23  O   UNL     1      -2.994  -3.277   0.000  0.00  0.00    -0.317 OA
ATOM     24  C   UNL     1      -4.920  -3.277   0.000  0.00  0.00    +0.238 C 
ATOM     25  C   UNL     1      -6.009  -4.631   0.000  0.00  0.00    +0.248 C 
ATOM     26  C   UNL     1      -4.920  -5.992   0.000  0.00  0.00    +0.256 C 
ATOM     27  C   UNL     1      -2.994  -5.992   0.000  0.00  0.00    +0.268 C 
BRANCH  24  28
ATOM     28  C   UNL     1      -4.920  -2.641   0.000  0.00  0.00    +0.272 C 
ATOM     29  N   UNL     1      -5.890  -2.453   0.000  0.00  0.00    -0.203 NA
ATOM     30  O   UNL     1      -4.201  -2.139   0.000  0.00  0.00    -0.271 OA
BRANCH  29  31
ATOM     31  C   UNL     1      -6.881  -2.705   0.000  0.00  0.00    +0.127 C 
BRANCH  31  32
ATOM     32  C   UNL     1      -7.551  -1.951   0.000  0.00  0.00    +0.133 C 
BRANCH  32  33
ATOM     33  C   UNL     1      -8.521  -2.188   0.000  0.00  0.00    +0.319 C 
ATOM     34  O   UNL     1      -8.821  -3.109   0.000  0.00  0.00    -0.250 OA
BRANCH  33  35
ATOM     35  O   UNL     1      -9.226  -1.469   0.000  0.00  0.00    -0.448 OA
BRANCH  35  36
ATOM     36  C   UNL     1     -10.189  -1.651   0.000  0.00  0.00    +0.209 C 
ATOM     37  C   UNL     1     -10.489  -2.586   0.000  0.00  0.00    +0.051 C 
ENDBRANCH  35  36
ENDBRANCH  33  35
ENDBRANCH  32  33
ENDBRANCH  31  32
ENDBRANCH  29  31
ENDBRANCH  24  28
BRANCH  27  38
ATOM     38  O   UNL     1      -2.994  -6.913   0.000  0.00  0.00    -0.443 OA
BRANCH  38  39
ATOM     39  C   UNL     1      -2.359  -7.262   0.000  0.00  0.00    +0.318 C 
ATOM     40  C   UNL     1      -2.359  -8.015   0.000  0.00  0.00    +0.121 C 
ATOM     41  O   UNL     1      -1.640  -6.962   0.000  0.00  0.00    -0.250 OA
ENDBRANCH  38  39
ENDBRANCH  27  38
BRANCH  25  42
ATOM     42  O   UNL     1      -6.009  -5.587   0.000  0.00  0.00    -0.445 OA
BRANCH  42  43
ATOM     43  C   UNL     1      -6.630  -6.005   0.000  0.00  0.00    +0.318 C 
ATOM     44  C   UNL     1      -6.630  -6.808   0.000  0.00  0.00    +0.121 C 
ATOM     45  O   UNL     1      -7.398  -5.740   0.000  0.00  0.00    -0.250 OA
ENDBRANCH  42  43
ENDBRANCH  25  42
BRANCH  26  46
ATOM     46  O   UNL     1      -4.920  -5.154   0.000  0.00  0.00    -0.444 OA
BRANCH  46  47
ATOM     47  C   UNL     1      -4.285  -4.701   0.000  0.00  0.00    +0.318 C 
ATOM     48  C   UNL     1      -4.285  -3.863   0.000  0.00  0.00    +0.121 C 
ATOM     49  O   UNL     1      -3.497  -5.000   0.000  0.00  0.00    -0.250 OA
ENDBRANCH  46  47
ENDBRANCH  26  46
ENDBRANCH  21  22
ENDBRANCH   6  21
BRANCH   4  50
ATOM     50  O   UNL     1      -4.955  -0.408   0.000  0.00  0.00    -0.445 OA
BRANCH  50  51
ATOM     51  C   UNL     1      -4.955  -0.967   0.000  0.00  0.00    +0.318 C 
ATOM     52  C   UNL     1      -4.487  -1.281   0.000  0.00  0.00    +0.121 C 
ATOM     53  O   UNL     1      -5.409  -1.302   0.000  0.00  0.00    -0.250 OA
ENDBRANCH  50  51
ENDBRANCH   4  50
BRANCH   1  54
ATOM     54  O   UNL     1      -0.949   2.251   0.000  0.00  0.00    -0.331 OA
BRANCH  54  76
ATOM     55  C   UNL     1       2.952   4.533   0.000  0.00  0.00    -0.042 C 
ATOM     56  C   UNL     1       3.741   5.098   0.000  0.00  0.00    +0.019 C 
ATOM     57  C   UNL     1       4.543   4.631   0.000  0.00  0.00    +0.003 C 
ATOM     58  C   UNL     1       5.416   4.093   0.000  0.00  0.00    +0.000 C 
ATOM     59  C   UNL     1       5.332   5.098   0.000  0.00  0.00    +0.001 C 
ATOM     60  C   UNL     1       5.332   5.984   0.000  0.00  0.00    +0.009 C 
ATOM     61  C   UNL     1       4.543   6.438   0.000  0.00  0.00    +0.071 C 
ATOM     62  C   UNL     1       3.741   6.940   0.000  0.00  0.00    +0.009 C 
ATOM     63  C   UNL     1       4.543   3.709   0.000  0.00  0.00    +0.001 C 
ATOM     64  C   UNL     1       3.741   3.256   0.000  0.00  0.00    +0.004 C 
ATOM     65  C   UNL     1       3.741   5.984   0.000  0.00  0.00    +0.013 C 
ATOM     66  C   UNL     1       2.317   4.930   0.000  0.00  0.00    +0.029 C 
ATOM     67  C   UNL     1       1.696   4.533   0.000  0.00  0.00    +0.172 C 
ATOM     68  O   UNL     1       0.907   4.979   0.000  0.00  0.00    -0.291 OA
ATOM     69  C   UNL     1       1.696   3.793   0.000  0.00  0.00    +0.062 C 
ATOM     70  C   UNL     1       2.317   3.444   0.000  0.00  0.00    +0.010 C 
ATOM     71  C   UNL     1       2.317   4.142   0.000  0.00  0.00    +0.001 C 
ATOM     72  C   UNL     1       2.317   2.635   0.000  0.00  0.00    +0.001 C 
ATOM     73  C   UNL     1       1.696   2.251   0.000  0.00  0.00    +0.000 C 
ATOM     74  C   UNL     1       1.061   2.635   0.000  0.00  0.00    +0.003 C 
ATOM     75  C   UNL     1       0.391   2.251   0.000  0.00  0.00    +0.025 C 
ATOM     76  C   UNL     1      -0.230   2.635   0.000  0.00  0.00    +0.118 C 
ATOM     77  C   UNL     1      -0.230   3.444   0.000  0.00  0.00    +0.030 C 
ATOM     78  C   UNL     1       0.391   3.793   0.000  0.00  0.00    +0.003 C 
ATOM     79  C   UNL     1       0.942   1.497   0.000  0.00  0.00    +0.002 C 
ATOM     80  C   UNL     1      -0.063   1.350   0.000  0.00  0.00    +0.002 C 
ATOM     81  C   UNL     1       1.061   3.444   0.000  0.00  0.00    +0.007 C 
ATOM     82  C   UNL     1       1.061   4.198   0.000  0.00  0.00    +0.000 C 
ATOM     83  C   UNL     1       2.952   3.793   0.000  0.00  0.00    +0.016 C 
ATOM     84  C   UNL     1       2.952   2.941   0.000  0.00  0.00    +0.004 C 
BRANCH  61  85
ATOM     85  C   UNL     1       5.297   6.940   0.000  0.00  0.00    +0.240 C 
ATOM     86  N   UNL     1       6.149   6.508   0.000  0.00  0.00    -0.205 NA
ATOM     87  O   UNL     1       5.297   7.918   0.000  0.00  0.00    -0.273 OA
BRANCH  86  88
ATOM     88  C   UNL     1       7.021   6.976   0.000  0.00  0.00    +0.127 C 
BRANCH  88  89
ATOM     89  C   UNL     1       7.879   6.508   0.000  0.00  0.00    +0.133 C 
BRANCH  89  90
ATOM     90  C   UNL     1       8.731   6.976   0.000  0.00  0.00    +0.319 C 
ATOM     91  O   UNL     1       8.731   8.015   0.000  0.00  0.00    -0.250 OA
BRANCH  90  92
ATOM     92  O   UNL     1       9.603   6.508   0.000  0.00  0.00    -0.448 OA
BRANCH  92  93
ATOM     93  C   UNL     1      10.489   6.989   0.000  0.00  0.00    +0.209 C 
ATOM     94  C   UNL     1      10.489   7.981   0.000  0.00  0.00    +0.051 C 
ENDBRANCH  92  93
ENDBRANCH  90  92
ENDBRANCH  89  90
ENDBRANCH  88  89
ENDBRANCH  86  88
ENDBRANCH  61  85
ENDBRANCH  54  76
ENDBRANCH   1  54
TORSDOF 32
ENDMDL
MODEL      250
REMARK  Name = methyl 2-({10-[(4,5-dihydroxy-6-{[1-methoxy-4-(methylsulfanyl)-1-oxobutan-2-yl]carbamoyl}-3-[(3,4,5-trihydroxy-6-{[1-methoxy-4-(methylsulfanyl)-1-oxobutan-2-yl]carbamoyl}oxan-2-yl)oxy]oxan-2-yl)oxy]-2 ,4a,6a,6b,9,9,12a-heptamethyl-13-oxo-1,2,3,4,4a,5,6,6a,6b,7,8,8a,9,10,11,12,12a,12b,13,14b-icosahydropicen-2-yl}formamido)-4-(methylsulfanyl)butanoate
REMARK  25 active torsions:
REMARK  status: ('A' for Active; 'I' for Inactive)
REMARK    1  A    between atoms: C_5  and  C_22
REMARK    2  A    between atoms: C_6  and  C_23
REMARK    3  A    between atoms: C_7  and  O_24
REMARK    4  A    between atoms: C_9  and  O_24
REMARK    5  A    between atoms: C_10  and  O_32
REMARK    6  A    between atoms: C_26  and  C_27
REMARK    7  A    between atoms: N_29  and  C_42
REMARK    8  A    between atoms: N_30  and  C_43
REMARK    9  A    between atoms: O_32  and  C_33
REMARK   10  A    between atoms: N_34  and  C_44
REMARK   11  A    between atoms: C_39  and  C_42
REMARK   12  A    between atoms: C_39  and  O_65
REMARK   13  A    between atoms: C_40  and  C_43
REMARK   14  A    between atoms: C_40  and  O_66
REMARK   15  A    between atoms: C_41  and  C_44
REMARK   16  A    between atoms: C_41  and  O_64
REMARK   17  A    between atoms: C_42  and  C_68
REMARK   18  A    between atoms: C_43  and  C_69
REMARK   19  A    between atoms: C_44  and  C_67
REMARK   20  A    between atoms: C_67  and  C_79
REMARK   21  A    between atoms: C_68  and  C_78
REMARK   22  A    between atoms: C_69  and  C_77
REMARK   23  A    between atoms: S_72  and  C_77
REMARK   24  A    between atoms: S_73  and  C_78
REMARK   25  A    between atoms: S_74  and  C_79
REMARK                            x       y       z     vdW  Elec       q    Type
REMARK                         _______ _______ _______ _____ _____    ______ ____
ROOT
ATOM      1  O   UNL     1      -2.881  -0.764   0.000  0.00  0.00    -0.331 OA
ENDROOT
BRANCH   1  23
ATOM      2  C   UNL     1       1.835   2.013   0.000  0.00  0.00    -0.042 C 
ATOM      3  C   UNL     1       2.806   2.679   0.000  0.00  0.00    +0.019 C 
ATOM      4  C   UNL     1       3.759   2.131   0.000  0.00  0.00    +0.003 C 
ATOM      5  C   UNL     1       4.831   1.490   0.000  0.00  0.00    +0.000 C 
ATOM      6  C   UNL     1       4.713   2.679   0.000  0.00  0.00    +0.001 C 
ATOM      7  C   UNL     1       4.713   3.776   0.000  0.00  0.00    +0.009 C 
ATOM      8  C   UNL     1       3.759   4.299   0.000  0.00  0.00    +0.071 C 
ATOM      9  C   UNL     1       2.806   4.907   0.000  0.00  0.00    +0.009 C 
ATOM     10  C   UNL     1       3.759   1.017   0.000  0.00  0.00    +0.001 C 
ATOM     11  C   UNL     1       2.806   0.477   0.000  0.00  0.00    +0.004 C 
ATOM     12  C   UNL     1       2.806   3.776   0.000  0.00  0.00    +0.013 C 
ATOM     13  C   UNL     1       1.084   2.477   0.000  0.00  0.00    +0.029 C 
ATOM     14  C   UNL     1       0.333   2.013   0.000  0.00  0.00    +0.172 C 
ATOM     15  O   UNL     1      -0.620   2.561   0.000  0.00  0.00    -0.291 OA
ATOM     16  C   UNL     1       0.333   1.118   0.000  0.00  0.00    +0.062 C 
ATOM     17  C   UNL     1       1.084   0.696   0.000  0.00  0.00    +0.010 C 
ATOM     18  C   UNL     1       1.084   1.549   0.000  0.00  0.00    +0.001 C 
ATOM     19  C   UNL     1       1.084  -0.274   0.000  0.00  0.00    +0.001 C 
ATOM     20  C   UNL     1       0.333  -0.764   0.000  0.00  0.00    +0.000 C 
ATOM     21  C   UNL     1      -0.434  -0.274   0.000  0.00  0.00    +0.003 C 
ATOM     22  C   UNL     1      -1.245  -0.764   0.000  0.00  0.00    +0.025 C 
ATOM     23  C   UNL     1      -2.012  -0.274   0.000  0.00  0.00    +0.118 C 
ATOM     24  C   UNL     1      -2.012   0.696   0.000  0.00  0.00    +0.030 C 
ATOM     25  C   UNL     1      -1.245   1.118   0.000  0.00  0.00    +0.003 C 
ATOM     26  C   UNL     1      -1.793  -1.852   0.000  0.00  0.00    +0.002 C 
ATOM     27  C   UNL     1      -0.578  -1.675   0.000  0.00  0.00    +0.002 C 
ATOM     28  C   UNL     1      -0.434   0.696   0.000  0.00  0.00    +0.007 C 
ATOM     29  C   UNL     1      -0.434   1.608   0.000  0.00  0.00    +0.000 C 
ATOM     30  C   UNL     1       1.835   1.118   0.000  0.00  0.00    +0.016 C 
ATOM     31  C   UNL     1       1.852   0.089   0.000  0.00  0.00    +0.004 C 
BRANCH   8  32
ATOM     32  C   UNL     1       4.671   4.932   0.000  0.00  0.00    +0.241 C 
ATOM     33  O   UNL     1       4.671   6.105   0.000  0.00  0.00    -0.273 OA
ATOM     34  N   UNL     1       6.130   4.198   0.000  0.00  0.00    -0.202 NA
BRANCH  34  35
ATOM     35  C   UNL     1       6.957   4.688   0.000  0.00  0.00    +0.214 C 
BRANCH  35  36
ATOM     36  C   UNL     1       6.451   5.540   0.000  0.00  0.00    +0.331 C 
ATOM     37  O   UNL     1       5.582   5.540   0.000  0.00  0.00    -0.249 OA
BRANCH  36  38
ATOM     38  O   UNL     1       6.941   6.367   0.000  0.00  0.00    -0.443 OA
ATOM     39  C   UNL     1       6.468   7.219   0.000  0.00  0.00    +0.256 C 
ENDBRANCH  36  38
ENDBRANCH  35  36
BRANCH  35  40
ATOM     40  C   UNL     1       7.463   3.835   0.000  0.00  0.00    +0.038 C 
BRANCH  40  41
ATOM     41  C   UNL     1       8.459   3.835   0.000  0.00  0.00    +0.060 C 
BRANCH  41  42
ATOM     42  S   UNL     1       8.966   2.983   0.000  0.00  0.00    -0.139 S 
ATOM     43  C   UNL     1       9.953   2.983   0.000  0.00  0.00    +0.069 C 
ENDBRANCH  41  42
ENDBRANCH  40  41
ENDBRANCH  35  40
ENDBRANCH  34  35
ENDBRANCH   8  32
ENDBRANCH   1  23
BRANCH   1  44
ATOM     44  C   UNL     1      -2.881  -1.937   0.000  0.00  0.00    +0.266 C 
ATOM     45  O   UNL     1      -3.531  -1.109   0.000  0.00  0.00    -0.319 OA
ATOM     46  C   UNL     1      -4.729  -1.109   0.000  0.00  0.00    +0.228 C 
ATOM     47  C   UNL     1      -5.379  -1.937   0.000  0.00  0.00    +0.221 C 
ATOM     48  C   UNL     1      -4.729  -2.704   0.000  0.00  0.00    +0.217 C 
ATOM     49  O   UNL     1      -4.729  -1.877   0.000  0.00  0.00    -0.217 OA
ATOM     50  O   UNL     1      -5.354  -2.865   0.000  0.00  0.00    -0.217 OA
ATOM     51  C   UNL     1      -3.531  -2.704   0.000  0.00  0.00    +0.207 C 
BRANCH  46  52
ATOM     52  C   UNL     1      -4.729  -0.603   0.000  0.00  0.00    +0.271 C 
ATOM     53  O   UNL     1      -4.122  -0.232   0.000  0.00  0.00    -0.271 OA
ATOM     54  N   UNL     1      -5.236  -0.333   0.000  0.00  0.00    -0.200 NA
BRANCH  54  55
ATOM     55  C   UNL     1      -5.236   0.637   0.000  0.00  0.00    +0.214 C 
BRANCH  55  56
ATOM     56  C   UNL     1      -6.207   0.637   0.000  0.00  0.00    +0.331 C 
ATOM     57  O   UNL     1      -6.696  -0.215   0.000  0.00  0.00    -0.249 OA
BRANCH  56  58
ATOM     58  O   UNL     1      -6.713   1.464   0.000  0.00  0.00    -0.443 OA
ATOM     59  C   UNL     1      -7.666   1.490   0.000  0.00  0.00    +0.256 C 
ENDBRANCH  56  58
ENDBRANCH  55  56
BRANCH  55  60
ATOM     60  C   UNL     1      -5.236   1.608   0.000  0.00  0.00    +0.038 C 
BRANCH  60  61
ATOM     61  C   UNL     1      -4.367   2.071   0.000  0.00  0.00    +0.060 C 
BRANCH  61  62
ATOM     62  S   UNL     1      -4.341   3.067   0.000  0.00  0.00    -0.139 S 
ATOM     63  C   UNL     1      -3.489   3.549   0.000  0.00  0.00    +0.069 C 
ENDBRANCH  61  62
ENDBRANCH  60  61
ENDBRANCH  55  60
ENDBRANCH  54  55
ENDBRANCH  46  52
BRANCH  51  64
ATOM     64  O   UNL     1      -3.514  -4.080   0.000  0.00  0.00    -0.323 OA
BRANCH  64  65
ATOM     65  C   UNL     1      -3.514  -5.565   0.000  0.00  0.00    +0.270 C 
ATOM     66  C   UNL     1      -4.139  -6.392   0.000  0.00  0.00    +0.241 C 
ATOM     67  O   UNL     1      -4.139  -7.219   0.000  0.00  0.00    -0.215 OA
ATOM     68  C   UNL     1      -5.312  -6.392   0.000  0.00  0.00    +0.220 C 
ATOM     69  O   UNL     1      -5.312  -5.565   0.000  0.00  0.00    -0.217 OA
ATOM     70  C   UNL     1      -6.004  -5.565   0.000  0.00  0.00    +0.221 C 
ATOM     71  C   UNL     1      -5.312  -4.729   0.000  0.00  0.00    +0.228 C 
ATOM     72  O   UNL     1      -6.004  -6.611   0.000  0.00  0.00    -0.217 OA
ATOM     73  O   UNL     1      -4.139  -4.729   0.000  0.00  0.00    -0.319 OA
BRANCH  71  74
ATOM     74  C   UNL     1      -5.312  -4.206   0.000  0.00  0.00    +0.271 C 
ATOM     75  O   UNL     1      -4.687  -3.616   0.000  0.00  0.00    -0.271 OA
ATOM     76  N   UNL     1      -6.046  -3.818   0.000  0.00  0.00    -0.200 NA
BRANCH  76  77
ATOM     77  C   UNL     1      -7.033  -3.818   0.000  0.00  0.00    +0.214 C 
BRANCH  77  78
ATOM     78  C   UNL     1      -7.033  -2.831   0.000  0.00  0.00    +0.331 C 
ATOM     79  O   UNL     1      -6.189  -2.325   0.000  0.00  0.00    -0.249 OA
BRANCH  78  80
ATOM     80  O   UNL     1      -7.843  -2.325   0.000  0.00  0.00    -0.443 OA
ATOM     81  C   UNL     1      -8.721  -2.789   0.000  0.00  0.00    +0.256 C 
ENDBRANCH  78  80
ENDBRANCH  77  78
BRANCH  77  82
ATOM     82  C   UNL     1      -7.987  -3.818   0.000  0.00  0.00    +0.038 C 
BRANCH  82  83
ATOM     83  C   UNL     1      -8.476  -4.670   0.000  0.00  0.00    +0.060 C 
BRANCH  83  84
ATOM     84  S   UNL     1      -9.463  -4.670   0.000  0.00  0.00    -0.139 S 
ATOM     85  C   UNL     1      -9.953  -5.523   0.000  0.00  0.00    +0.069 C 
ENDBRANCH  83  84
ENDBRANCH  82  83
ENDBRANCH  77  82
ENDBRANCH  76  77
ENDBRANCH  71  74
ENDBRANCH  64  65
ENDBRANCH  51  64
ENDBRANCH   1  44
TORSDOF 25
ENDMDL
MODEL      251
REMARK  Name = benzyl 3,4-bis(acetyloxy)-6-({11-[(benzyloxy)carbonyl]-4,4,6a,6b,8a,11,14b-heptamethyl-14-oxo-1,2,3,4,4a,5,6,6a,6b,7,8,8a,9,10,11,12,12a,14,14a,14b-icosahydropicen-3-yl}oxy)-5-{[3,4,5-tris(acetyloxy)- 6-[(benzyloxy)carbonyl]oxan-2-yl]oxy}oxane-2-carboxylate
REMARK  26 active torsions:
REMARK  status: ('A' for Active; 'I' for Inactive)
REMARK    1  A    between atoms: C_5  and  O_22
REMARK    2  A    between atoms: C_6  and  C_25
REMARK    3  A    between atoms: C_7  and  C_26
REMARK    4  A    between atoms: C_8  and  O_34
REMARK    5  A    between atoms: C_9  and  O_36
REMARK    6  A    between atoms: C_10  and  O_33
REMARK    7  A    between atoms: C_11  and  O_35
REMARK    8  A    between atoms: C_12  and  O_38
REMARK    9  A    between atoms: C_13  and  O_22
REMARK   10  A    between atoms: C_15  and  O_29
REMARK   11  A    between atoms: C_24  and  C_31
REMARK   12  A    between atoms: C_25  and  O_46
REMARK   13  A    between atoms: C_26  and  O_47
REMARK   14  A    between atoms: O_29  and  C_30
REMARK   15  A    between atoms: C_31  and  O_48
REMARK   16  A    between atoms: O_33  and  C_45
REMARK   17  A    between atoms: O_34  and  C_44
REMARK   18  A    between atoms: O_35  and  C_42
REMARK   19  A    between atoms: O_36  and  C_41
REMARK   20  A    between atoms: O_38  and  C_43
REMARK   21  A    between atoms: O_46  and  C_66
REMARK   22  A    between atoms: O_47  and  C_65
REMARK   23  A    between atoms: O_48  and  C_67
REMARK   24  A    between atoms: C_65  and  C_71
REMARK   25  A    between atoms: C_66  and  C_70
REMARK   26  A    between atoms: C_67  and  C_72
REMARK                            x       y       z     vdW  Elec       q    Type
REMARK                         _______ _______ _______ _____ _____    ______ ____
ROOT
ATOM      1  C   UNL     1      -1.124   0.427   0.000  0.00  0.00    +0.268 C 
ATOM      2  O   UNL     1      -2.144   1.773   0.000  0.00  0.00    -0.316 OA
ATOM      3  C   UNL     1      -4.059   1.773   0.000  0.00  0.00    +0.260 C 
ATOM      4  C   UNL     1      -5.107   0.427   0.000  0.00  0.00    +0.249 C 
ATOM      5  C   UNL     1      -4.059  -0.808   0.000  0.00  0.00    +0.243 C 
ATOM      6  C   UNL     1      -2.144  -0.808   0.000  0.00  0.00    +0.217 C 
ENDROOT
BRANCH   3   7
ATOM      7  C   UNL     1      -4.073   2.487   0.000  0.00  0.00    +0.349 C 
ATOM      8  O   UNL     1      -3.407   2.953   0.000  0.00  0.00    -0.247 OA
BRANCH   7   9
ATOM      9  O   UNL     1      -5.003   2.821   0.000  0.00  0.00    -0.442 OA
BRANCH   9  10
ATOM     10  C   UNL     1      -5.003   3.757   0.000  0.00  0.00    +0.235 C 
BRANCH  10  11
ATOM     11  C   UNL     1      -5.856   4.257   0.000  0.00  0.00    +0.021 A 
ATOM     12  C   UNL     1      -6.723   3.757   0.000  0.00  0.00    -0.001 A 
ATOM     13  C   UNL     1      -7.604   4.257   0.000  0.00  0.00    -0.000 A 
ATOM     14  C   UNL     1      -7.619   5.256   0.000  0.00  0.00    -0.000 A 
ATOM     15  C   UNL     1      -6.737   5.770   0.000  0.00  0.00    -0.000 A 
ATOM     16  C   UNL     1      -5.856   5.270   0.000  0.00  0.00    -0.001 A 
ENDBRANCH  10  11
ENDBRANCH   9  10
ENDBRANCH   7   9
ENDBRANCH   3   7
BRANCH   4  17
ATOM     17  O   UNL     1      -5.107  -0.357   0.000  0.00  0.00    -0.445 OA
BRANCH  17  18
ATOM     18  C   UNL     1      -5.107  -0.905   0.000  0.00  0.00    +0.318 C 
ATOM     19  C   UNL     1      -4.642  -1.225   0.000  0.00  0.00    +0.121 C 
ATOM     20  O   UNL     1      -5.558  -1.239   0.000  0.00  0.00    -0.250 OA
ENDBRANCH  17  18
ENDBRANCH   4  17
BRANCH   5  21
ATOM     21  O   UNL     1      -4.059  -0.010   0.000  0.00  0.00    -0.446 OA
BRANCH  21  22
ATOM     22  C   UNL     1      -3.372   0.371   0.000  0.00  0.00    +0.318 C 
ATOM     23  C   UNL     1      -3.358   1.204   0.000  0.00  0.00    +0.121 C 
ATOM     24  O   UNL     1      -2.658   0.038   0.000  0.00  0.00    -0.250 OA
ENDBRANCH  21  22
ENDBRANCH   5  21
BRANCH   6  25
ATOM     25  O   UNL     1      -2.158  -2.606   0.000  0.00  0.00    -0.321 OA
BRANCH  25  26
ATOM     26  C   UNL     1      -2.158  -4.555   0.000  0.00  0.00    +0.281 C 
ATOM     27  O   UNL     1      -3.157  -3.209   0.000  0.00  0.00    -0.315 OA
ATOM     28  C   UNL     1      -5.072  -3.209   0.000  0.00  0.00    +0.260 C 
ATOM     29  C   UNL     1      -6.154  -4.555   0.000  0.00  0.00    +0.250 C 
ATOM     30  C   UNL     1      -5.072  -5.902   0.000  0.00  0.00    +0.256 C 
ATOM     31  C   UNL     1      -3.157  -5.902   0.000  0.00  0.00    +0.268 C 
BRANCH  28  32
ATOM     32  C   UNL     1      -5.072  -2.571   0.000  0.00  0.00    +0.349 C 
ATOM     33  O   UNL     1      -4.357  -2.071   0.000  0.00  0.00    -0.247 OA
BRANCH  32  34
ATOM     34  O   UNL     1      -6.036  -2.390   0.000  0.00  0.00    -0.442 OA
BRANCH  34  35
ATOM     35  C   UNL     1      -7.022  -2.640   0.000  0.00  0.00    +0.235 C 
BRANCH  35  36
ATOM     36  C   UNL     1      -7.702  -1.939   0.000  0.00  0.00    +0.021 A 
ATOM     37  C   UNL     1      -8.653  -2.189   0.000  0.00  0.00    -0.001 A 
ATOM     38  C   UNL     1      -9.402  -1.509   0.000  0.00  0.00    -0.000 A 
ATOM     39  C   UNL     1      -9.138  -0.524   0.000  0.00  0.00    -0.000 A 
ATOM     40  C   UNL     1      -8.153  -0.239   0.000  0.00  0.00    -0.000 A 
ATOM     41  C   UNL     1      -7.452  -0.961   0.000  0.00  0.00    -0.001 A 
ENDBRANCH  35  36
ENDBRANCH  34  35
ENDBRANCH  32  34
ENDBRANCH  28  32
BRANCH  30  42
ATOM     42  O   UNL     1      -5.072  -5.069   0.000  0.00  0.00    -0.444 OA
BRANCH  42  43
ATOM     43  C   UNL     1      -4.441  -4.625   0.000  0.00  0.00    +0.318 C 
ATOM     44  C   UNL     1      -4.441  -3.792   0.000  0.00  0.00    +0.121 C 
ATOM     45  O   UNL     1      -3.657  -4.923   0.000  0.00  0.00    -0.250 OA
ENDBRANCH  42  43
ENDBRANCH  30  42
BRANCH  29  46
ATOM     46  O   UNL     1      -6.154  -5.506   0.000  0.00  0.00    -0.445 OA
BRANCH  46  47
ATOM     47  C   UNL     1      -6.772  -5.922   0.000  0.00  0.00    +0.318 C 
ATOM     48  C   UNL     1      -6.772  -6.720   0.000  0.00  0.00    +0.121 C 
ATOM     49  O   UNL     1      -7.535  -5.652   0.000  0.00  0.00    -0.250 OA
ENDBRANCH  46  47
ENDBRANCH  29  46
BRANCH  31  50
ATOM     50  O   UNL     1      -3.157  -6.817   0.000  0.00  0.00    -0.443 OA
BRANCH  50  51
ATOM     51  C   UNL     1      -2.526  -7.171   0.000  0.00  0.00    +0.318 C 
ATOM     52  C   UNL     1      -2.526  -7.921   0.000  0.00  0.00    +0.121 C 
ATOM     53  O   UNL     1      -1.811  -6.873   0.000  0.00  0.00    -0.250 OA
ENDBRANCH  50  51
ENDBRANCH  31  50
ENDBRANCH  25  26
ENDBRANCH   6  25
BRANCH   1  54
ATOM     54  O   UNL     1      -1.124   2.287   0.000  0.00  0.00    -0.331 OA
BRANCH  54  76
ATOM     55  C   UNL     1       2.755   4.555   0.000  0.00  0.00    -0.042 C 
ATOM     56  C   UNL     1       3.539   5.117   0.000  0.00  0.00    +0.019 C 
ATOM     57  C   UNL     1       4.337   4.652   0.000  0.00  0.00    +0.003 C 
ATOM     58  C   UNL     1       5.204   4.118   0.000  0.00  0.00    +0.000 C 
ATOM     59  C   UNL     1       5.121   5.117   0.000  0.00  0.00    +0.001 C 
ATOM     60  C   UNL     1       5.121   6.005   0.000  0.00  0.00    +0.011 C 
ATOM     61  C   UNL     1       4.337   6.450   0.000  0.00  0.00    +0.090 C 
ATOM     62  C   UNL     1       3.539   6.949   0.000  0.00  0.00    +0.011 C 
ATOM     63  C   UNL     1       4.337   3.736   0.000  0.00  0.00    +0.001 C 
ATOM     64  C   UNL     1       3.539   3.285   0.000  0.00  0.00    +0.004 C 
ATOM     65  C   UNL     1       3.539   6.005   0.000  0.00  0.00    +0.015 C 
ATOM     66  C   UNL     1       2.123   4.951   0.000  0.00  0.00    +0.029 C 
ATOM     67  C   UNL     1       1.506   4.555   0.000  0.00  0.00    +0.172 C 
ATOM     68  O   UNL     1       0.722   5.006   0.000  0.00  0.00    -0.291 OA
ATOM     69  C   UNL     1       1.506   3.820   0.000  0.00  0.00    +0.062 C 
ATOM     70  C   UNL     1       2.123   3.473   0.000  0.00  0.00    +0.010 C 
ATOM     71  C   UNL     1       2.123   4.174   0.000  0.00  0.00    +0.001 C 
ATOM     72  C   UNL     1       2.123   2.675   0.000  0.00  0.00    +0.001 C 
ATOM     73  C   UNL     1       1.506   2.287   0.000  0.00  0.00    +0.000 C 
ATOM     74  C   UNL     1       0.874   2.675   0.000  0.00  0.00    +0.003 C 
ATOM     75  C   UNL     1       0.208   2.287   0.000  0.00  0.00    +0.025 C 
ATOM     76  C   UNL     1      -0.409   2.675   0.000  0.00  0.00    +0.118 C 
ATOM     77  C   UNL     1      -0.409   3.473   0.000  0.00  0.00    +0.030 C 
ATOM     78  C   UNL     1       0.208   3.820   0.000  0.00  0.00    +0.003 C 
ATOM     79  C   UNL     1      -0.243   1.391   0.000  0.00  0.00    +0.002 C 
ATOM     80  C   UNL     1       0.756   1.537   0.000  0.00  0.00    +0.002 C 
ATOM     81  C   UNL     1       0.874   3.473   0.000  0.00  0.00    +0.007 C 
ATOM     82  C   UNL     1       0.874   4.222   0.000  0.00  0.00    +0.000 C 
ATOM     83  C   UNL     1       2.755   3.820   0.000  0.00  0.00    +0.016 C 
ATOM     84  C   UNL     1       2.755   2.973   0.000  0.00  0.00    +0.004 C 
BRANCH  61  85
ATOM     85  C   UNL     1       5.086   6.949   0.000  0.00  0.00    +0.316 C 
ATOM     86  O   UNL     1       5.086   7.921   0.000  0.00  0.00    -0.250 OA
BRANCH  85  87
ATOM     87  O   UNL     1       5.933   6.519   0.000  0.00  0.00    -0.444 OA
BRANCH  87  88
ATOM     88  C   UNL     1       6.800   6.984   0.000  0.00  0.00    +0.235 C 
BRANCH  88  89
ATOM     89  C   UNL     1       7.653   6.471   0.000  0.00  0.00    +0.021 A 
ATOM     90  C   UNL     1       8.514   6.949   0.000  0.00  0.00    -0.001 A 
ATOM     91  C   UNL     1       9.402   6.471   0.000  0.00  0.00    -0.000 A 
ATOM     92  C   UNL     1       9.402   5.450   0.000  0.00  0.00    -0.000 A 
ATOM     93  C   UNL     1       8.514   4.937   0.000  0.00  0.00    -0.000 A 
ATOM     94  C   UNL     1       7.653   5.450   0.000  0.00  0.00    -0.001 A 
ENDBRANCH  88  89
ENDBRANCH  87  88
ENDBRANCH  85  87
ENDBRANCH  61  85
ENDBRANCH  54  76
ENDBRANCH   1  54
TORSDOF 26
ENDMDL
MODEL      252
REMARK  Name = methyl 2-{[10-({4,5-dihydroxy-6-[(1-methoxy-3-methyl-1-oxobutan-2-yl)carbamoyl]-3-({3,4,5-trihydroxy-6-[(1-methoxy-3-methyl-1-oxobutan-2-yl)carbamoyl]oxan-2-yl}oxy)oxan-2-yl}oxy)-2,4a,6a,6b,9,9,12a-he ptamethyl-13-oxo-1,2,3,4,4a,5,6,6a,6b,7,8,8a,9,10,11,12,12a,12b,13,14b-icosahydropicen-2-yl]formamido}-3-methylbutanoate
REMARK  19 active torsions:
REMARK  status: ('A' for Active; 'I' for Inactive)
REMARK    1  A    between atoms: C_5  and  C_16
REMARK    2  A    between atoms: C_6  and  C_17
REMARK    3  A    between atoms: C_7  and  O_24
REMARK    4  A    between atoms: C_9  and  O_24
REMARK    5  A    between atoms: C_10  and  O_33
REMARK    6  A    between atoms: N_25  and  C_35
REMARK    7  A    between atoms: N_26  and  C_36
REMARK    8  A    between atoms: N_28  and  C_37
REMARK    9  A    between atoms: C_29  and  C_30
REMARK   10  A    between atoms: O_33  and  C_34
REMARK   11  A    between atoms: C_35  and  C_43
REMARK   12  A    between atoms: C_35  and  C_65
REMARK   13  A    between atoms: C_36  and  C_42
REMARK   14  A    between atoms: C_36  and  C_64
REMARK   15  A    between atoms: C_37  and  C_41
REMARK   16  A    between atoms: C_37  and  C_63
REMARK   17  A    between atoms: C_41  and  O_67
REMARK   18  A    between atoms: C_42  and  O_68
REMARK   19  A    between atoms: C_43  and  O_69
REMARK                            x       y       z     vdW  Elec       q    Type
REMARK                         _______ _______ _______ _____ _____    ______ ____
ROOT
ATOM      1  C   UNL     1       1.858   2.015   0.000  0.00  0.00    -0.042 C 
ATOM      2  C   UNL     1       2.830   2.682   0.000  0.00  0.00    +0.019 C 
ATOM      3  C   UNL     1       3.784   2.133   0.000  0.00  0.00    +0.003 C 
ATOM      4  C   UNL     1       4.857   1.491   0.000  0.00  0.00    +0.000 C 
ATOM      5  C   UNL     1       4.739   2.682   0.000  0.00  0.00    +0.001 C 
ATOM      6  C   UNL     1       4.739   3.780   0.000  0.00  0.00    +0.009 C 
ATOM      7  C   UNL     1       3.784   4.304   0.000  0.00  0.00    +0.071 C 
ATOM      8  C   UNL     1       2.830   4.912   0.000  0.00  0.00    +0.009 C 
ATOM      9  C   UNL     1       3.784   1.018   0.000  0.00  0.00    +0.001 C 
ATOM     10  C   UNL     1       2.830   0.477   0.000  0.00  0.00    +0.004 C 
ATOM     11  C   UNL     1       2.830   3.780   0.000  0.00  0.00    +0.013 C 
ATOM     12  C   UNL     1       1.106   2.479   0.000  0.00  0.00    +0.029 C 
ATOM     13  C   UNL     1       0.355   2.015   0.000  0.00  0.00    +0.172 C 
ATOM     14  O   UNL     1      -0.600   2.564   0.000  0.00  0.00    -0.291 OA
ATOM     15  C   UNL     1       0.355   1.119   0.000  0.00  0.00    +0.062 C 
ATOM     16  C   UNL     1       1.106   0.697   0.000  0.00  0.00    +0.010 C 
ATOM     17  C   UNL     1       1.106   1.550   0.000  0.00  0.00    +0.001 C 
ATOM     18  C   UNL     1       1.106  -0.275   0.000  0.00  0.00    +0.001 C 
ATOM     19  C   UNL     1       0.355  -0.764   0.000  0.00  0.00    +0.000 C 
ATOM     20  C   UNL     1      -0.414  -0.275   0.000  0.00  0.00    +0.003 C 
ATOM     21  C   UNL     1      -1.225  -0.764   0.000  0.00  0.00    +0.025 C 
ATOM     22  C   UNL     1      -1.993  -0.275   0.000  0.00  0.00    +0.118 C 
ATOM     23  C   UNL     1      -1.993   0.697   0.000  0.00  0.00    +0.030 C 
ATOM     24  C   UNL     1      -1.225   1.119   0.000  0.00  0.00    +0.003 C 
ATOM     25  C   UNL     1      -0.558  -1.677   0.000  0.00  0.00    +0.002 C 
ATOM     26  C   UNL     1      -1.774  -1.854   0.000  0.00  0.00    +0.002 C 
ATOM     27  C   UNL     1      -0.414   0.697   0.000  0.00  0.00    +0.007 C 
ATOM     28  C   UNL     1      -0.414   1.609   0.000  0.00  0.00    +0.000 C 
ATOM     29  C   UNL     1       1.858   1.119   0.000  0.00  0.00    +0.016 C 
ATOM     30  C   UNL     1       1.875   0.089   0.000  0.00  0.00    +0.004 C 
ENDROOT
BRANCH   7  31
ATOM     31  C   UNL     1       4.697   4.938   0.000  0.00  0.00    +0.241 C 
ATOM     32  O   UNL     1       4.697   6.112   0.000  0.00  0.00    -0.273 OA
ATOM     33  N   UNL     1       6.158   4.202   0.000  0.00  0.00    -0.202 NA
BRANCH  33  34
ATOM     34  C   UNL     1       6.986   4.692   0.000  0.00  0.00    +0.213 C 
BRANCH  34  35
ATOM     35  C   UNL     1       7.493   3.840   0.000  0.00  0.00    +0.025 C 
ATOM     36  C   UNL     1       7.028   2.986   0.000  0.00  0.00    +0.002 C 
ATOM     37  C   UNL     1       8.464   3.840   0.000  0.00  0.00    +0.002 C 
ENDBRANCH  34  35
BRANCH  34  38
ATOM     38  C   UNL     1       6.479   5.546   0.000  0.00  0.00    +0.331 C 
ATOM     39  O   UNL     1       5.609   5.546   0.000  0.00  0.00    -0.249 OA
BRANCH  38  40
ATOM     40  O   UNL     1       6.969   6.374   0.000  0.00  0.00    -0.443 OA
ATOM     41  C   UNL     1       6.462   7.227   0.000  0.00  0.00    +0.256 C 
ENDBRANCH  38  40
ENDBRANCH  34  38
ENDBRANCH  33  34
ENDBRANCH   7  31
BRANCH  22  42
ATOM     42  O   UNL     1      -2.864  -0.764   0.000  0.00  0.00    -0.331 OA
BRANCH  42  43
ATOM     43  C   UNL     1      -2.864  -1.938   0.000  0.00  0.00    +0.266 C 
ATOM     44  O   UNL     1      -3.514  -1.111   0.000  0.00  0.00    -0.319 OA
ATOM     45  C   UNL     1      -4.714  -1.111   0.000  0.00  0.00    +0.228 C 
ATOM     46  C   UNL     1      -5.364  -1.938   0.000  0.00  0.00    +0.221 C 
ATOM     47  C   UNL     1      -4.714  -2.708   0.000  0.00  0.00    +0.217 C 
ATOM     48  O   UNL     1      -4.714  -1.879   0.000  0.00  0.00    -0.217 OA
ATOM     49  O   UNL     1      -5.338  -2.868   0.000  0.00  0.00    -0.217 OA
ATOM     50  C   UNL     1      -3.514  -2.708   0.000  0.00  0.00    +0.207 C 
BRANCH  45  51
ATOM     51  C   UNL     1      -4.714  -0.604   0.000  0.00  0.00    +0.271 C 
ATOM     52  O   UNL     1      -4.106  -0.232   0.000  0.00  0.00    -0.271 OA
ATOM     53  N   UNL     1      -5.220  -0.334   0.000  0.00  0.00    -0.200 NA
BRANCH  53  54
ATOM     54  C   UNL     1      -5.220   0.638   0.000  0.00  0.00    +0.213 C 
BRANCH  54  55
ATOM     55  C   UNL     1      -5.220   1.609   0.000  0.00  0.00    +0.025 C 
ATOM     56  C   UNL     1      -6.048   2.099   0.000  0.00  0.00    +0.002 C 
ATOM     57  C   UNL     1      -4.384   2.099   0.000  0.00  0.00    +0.002 C 
ENDBRANCH  54  55
BRANCH  54  58
ATOM     58  C   UNL     1      -6.192   0.638   0.000  0.00  0.00    +0.331 C 
ATOM     59  O   UNL     1      -6.682  -0.215   0.000  0.00  0.00    -0.249 OA
BRANCH  58  60
ATOM     60  O   UNL     1      -6.699   1.466   0.000  0.00  0.00    -0.443 OA
ATOM     61  C   UNL     1      -7.653   1.466   0.000  0.00  0.00    +0.256 C 
ENDBRANCH  58  60
ENDBRANCH  54  58
ENDBRANCH  53  54
ENDBRANCH  45  51
BRANCH  50  62
ATOM     62  O   UNL     1      -3.497  -4.084   0.000  0.00  0.00    -0.323 OA
BRANCH  62  63
ATOM     63  C   UNL     1      -3.497  -5.571   0.000  0.00  0.00    +0.270 C 
ATOM     64  C   UNL     1      -4.122  -6.399   0.000  0.00  0.00    +0.241 C 
ATOM     65  O   UNL     1      -4.122  -7.227   0.000  0.00  0.00    -0.215 OA
ATOM     66  C   UNL     1      -5.296  -6.399   0.000  0.00  0.00    +0.220 C 
ATOM     67  O   UNL     1      -5.296  -5.571   0.000  0.00  0.00    -0.217 OA
ATOM     68  C   UNL     1      -5.989  -5.571   0.000  0.00  0.00    +0.221 C 
ATOM     69  C   UNL     1      -5.296  -4.735   0.000  0.00  0.00    +0.228 C 
ATOM     70  O   UNL     1      -5.989  -6.618   0.000  0.00  0.00    -0.217 OA
ATOM     71  O   UNL     1      -4.122  -4.735   0.000  0.00  0.00    -0.319 OA
BRANCH  69  72
ATOM     72  C   UNL     1      -5.296  -4.211   0.000  0.00  0.00    +0.271 C 
ATOM     73  O   UNL     1      -4.671  -3.619   0.000  0.00  0.00    -0.271 OA
ATOM     74  N   UNL     1      -6.031  -3.822   0.000  0.00  0.00    -0.200 NA
BRANCH  74  75
ATOM     75  C   UNL     1      -7.020  -3.822   0.000  0.00  0.00    +0.213 C 
BRANCH  75  76
ATOM     76  C   UNL     1      -7.974  -3.822   0.000  0.00  0.00    +0.025 C 
ATOM     77  C   UNL     1      -8.439  -2.994   0.000  0.00  0.00    +0.002 C 
ATOM     78  C   UNL     1      -8.464  -4.658   0.000  0.00  0.00    +0.002 C 
ENDBRANCH  75  76
BRANCH  75  79
ATOM     79  C   UNL     1      -7.020  -2.834   0.000  0.00  0.00    +0.331 C 
ATOM     80  O   UNL     1      -6.175  -2.327   0.000  0.00  0.00    -0.249 OA
BRANCH  79  81
ATOM     81  O   UNL     1      -7.831  -2.327   0.000  0.00  0.00    -0.443 OA
ATOM     82  C   UNL     1      -7.831  -1.347   0.000  0.00  0.00    +0.256 C 
ENDBRANCH  79  81
ENDBRANCH  75  79
ENDBRANCH  74  75
ENDBRANCH  69  72
ENDBRANCH  62  63
ENDBRANCH  50  62
ENDBRANCH  42  43
ENDBRANCH  22  42
TORSDOF 19
ENDMDL
MODEL      253
REMARK  Name = (14Z)-14-({[(2,4-DINITROPHENYL)CARBAMOYL]AMINO}IMINO)-5,9,13-TRIMETHYLTETRACYCLO[11.2.1.0^(1,10).0^(4,9)]HEXADECANE-5-CARBOXYLIC ACID
REMARK  5 active torsions:
REMARK  status: ('A' for Active; 'I' for Inactive)
REMARK    1  A    between atoms: C_1  and  N_2
REMARK    2  A    between atoms: N_5  and  C_13
REMARK    3  A    between atoms: C_8  and  C_17
REMARK    4  A    between atoms: C_12  and  N_18
REMARK    5  A    between atoms: N_15  and  N_21
REMARK                            x       y       z     vdW  Elec       q    Type
REMARK                         _______ _______ _______ _____ _____    ______ ____
ROOT
ATOM      1  N   UNL     1       1.399  -1.120   0.000  0.00  0.00    -0.164 NA
ATOM      2  C   UNL     1       0.562  -1.273   0.000  0.00  0.00    +0.055 C 
ATOM      3  C   UNL     1      -0.441  -2.612   0.000  0.00  0.00    +0.043 C 
ATOM      4  C   UNL     1      -1.389  -2.012   0.000  0.00  0.00    +0.006 C 
ATOM      5  C   UNL     1      -0.586  -1.533   0.000  0.00  0.00    +0.006 C 
ATOM      6  C   UNL     1      -1.389  -2.927   0.000  0.00  0.00    +0.000 C 
ATOM      7  C   UNL     1      -2.203  -3.415   0.000  0.00  0.00    -0.003 C 
ATOM      8  C   UNL     1      -3.016  -2.927   0.000  0.00  0.00    +0.023 C 
ATOM      9  C   UNL     1      -3.016  -2.012   0.000  0.00  0.00    -0.003 C 
ATOM     10  C   UNL     1      -3.016  -1.064   0.000  0.00  0.00    -0.000 C 
ATOM     11  C   UNL     1      -3.820  -1.533   0.000  0.00  0.00    -0.000 C 
ATOM     12  C   UNL     1      -4.647  -2.012   0.000  0.00  0.00    +0.001 C 
ATOM     13  C   UNL     1      -4.647  -2.927   0.000  0.00  0.00    +0.010 C 
ATOM     14  C   UNL     1      -3.820  -3.429   0.000  0.00  0.00    +0.090 C 
ATOM     15  C   UNL     1      -4.735  -4.019   0.000  0.00  0.00    +0.011 C 
ATOM     16  C   UNL     1      -2.203  -1.533   0.000  0.00  0.00    +0.000 C 
ATOM     17  C   UNL     1      -2.203  -0.586   0.000  0.00  0.00    +0.000 C 
ATOM     18  C   UNL     1      -1.422  -0.125   0.000  0.00  0.00    +0.005 C 
ATOM     19  C   UNL     1      -0.586  -0.562   0.000  0.00  0.00    +0.033 C 
ATOM     20  C   UNL     1       0.450   0.074   0.000  0.00  0.00    +0.006 C 
ENDROOT
BRANCH   1  24
ATOM     21  N   UNL     1       3.164   0.664   0.000  0.00  0.00    -0.153 NA
ATOM     22  C   UNL     1       2.737  -0.172   0.000  0.00  0.00    +0.365 C 
ATOM     23  O   UNL     1       3.262  -1.064   0.000  0.00  0.00    -0.247 OA
ATOM     24  N   UNL     1       1.724  -0.181   0.000  0.00  0.00    -0.061 NA
BRANCH  21  26
ATOM     25  C   UNL     1       3.183   2.407   0.000  0.00  0.00    +0.311 A 
ATOM     26  C   UNL     1       2.695   1.534   0.000  0.00  0.00    +0.145 A 
ATOM     27  C   UNL     1       1.668   1.534   0.000  0.00  0.00    +0.029 A 
ATOM     28  C   UNL     1       1.143   2.431   0.000  0.00  0.00    +0.077 A 
ATOM     29  C   UNL     1       1.668   3.276   0.000  0.00  0.00    +0.296 A 
ATOM     30  C   UNL     1       2.695   3.299   0.000  0.00  0.00    +0.152 A 
BRANCH  29  31
ATOM     31  N   UNL     1       1.166   4.154   0.000  0.00  0.00    +0.081 N 
ATOM     32  O   UNL     1       0.140   4.196   0.000  0.00  0.00    +0.041 OA
ATOM     33  O   UNL     1       1.580   5.079   0.000  0.00  0.00    -0.576 OA
ENDBRANCH  29  31
BRANCH  25  34
ATOM     34  N   UNL     1       4.186   2.431   0.000  0.00  0.00    +0.083 N 
ATOM     35  O   UNL     1       4.735   3.229   0.000  0.00  0.00    +0.042 OA
ATOM     36  O   UNL     1       4.735   1.580   0.000  0.00  0.00    -0.576 OA
ENDBRANCH  25  34
ENDBRANCH  21  26
ENDBRANCH   1  24
BRANCH  14  37
ATOM     37  C   UNL     1      -3.341  -4.228   0.000  0.00  0.00    +0.364 C 
ATOM     38  O   UNL     1      -2.338  -4.228   0.000  0.00  0.00    -0.246 OA
ATOM     39  O   UNL     1      -3.843  -5.079   0.000  0.00  0.00    -0.246 OA
ENDBRANCH  14  37
TORSDOF 5
ENDMDL
MODEL      254
REMARK  Name = 4-[(3a-{[(3-carboxypropanoyl)oxy]methyl}-5a,5b,8,8,11a-pentamethyl-1-(prop-1-en-2-yl)-icosahydro-1H-cyclopenta[a]chrysen-9-yl)oxy]-4-oxobutanoic acid
REMARK  12 active torsions:
REMARK  status: ('A' for Active; 'I' for Inactive)
REMARK    1  A    between atoms: C_9  and  C_28
REMARK    2  A    between atoms: C_10  and  C_18
REMARK    3  A    between atoms: C_11  and  O_19
REMARK    4  A    between atoms: O_19  and  C_21
REMARK    5  A    between atoms: C_21  and  C_37
REMARK    6  A    between atoms: C_22  and  O_29
REMARK    7  A    between atoms: C_22  and  C_38
REMARK    8  A    between atoms: C_23  and  C_41
REMARK    9  A    between atoms: C_24  and  C_40
REMARK   10  A    between atoms: C_28  and  O_29
REMARK   11  A    between atoms: C_37  and  C_40
REMARK   12  A    between atoms: C_38  and  C_41
REMARK                            x       y       z     vdW  Elec       q    Type
REMARK                         _______ _______ _______ _____ _____    ______ ____
ROOT
ATOM      1  C   UNL     1       0.551   0.953   0.000  0.00  0.00    +0.000 C 
ATOM      2  C   UNL     1       0.551  -0.091   0.000  0.00  0.00    +0.000 C 
ATOM      3  C   UNL     1       1.500   0.299   0.000  0.00  0.00    +0.000 C 
ATOM      4  C   UNL     1       2.450   0.859   0.000  0.00  0.00    +0.004 C 
ATOM      5  C   UNL     1       2.450   1.947   0.000  0.00  0.00    +0.041 C 
ATOM      6  C   UNL     1       1.500   2.507   0.000  0.00  0.00    +0.007 C 
ATOM      7  C   UNL     1       1.758   3.470   0.000  0.00  0.00    +0.018 C 
ATOM      8  C   UNL     1       2.740   3.564   0.000  0.00  0.00    +0.004 C 
ATOM      9  C   UNL     1       3.161   2.671   0.000  0.00  0.00    +0.004 C 
ATOM     10  C   UNL     1       0.551   1.809   0.000  0.00  0.00    +0.000 C 
ATOM     11  C   UNL     1      -0.236   2.293   0.000  0.00  0.00    +0.000 C 
ATOM     12  C   UNL     1      -1.004   1.809   0.000  0.00  0.00    +0.000 C 
ATOM     13  C   UNL     1      -1.004   0.953   0.000  0.00  0.00    +0.000 C 
ATOM     14  C   UNL     1      -1.758   0.513   0.000  0.00  0.00    +0.000 C 
ATOM     15  C   UNL     1      -1.758  -0.469   0.000  0.00  0.00    +0.003 C 
ATOM     16  C   UNL     1      -2.589  -0.953   0.000  0.00  0.00    +0.037 C 
ATOM     17  C   UNL     1      -3.136  -2.041   0.000  0.00  0.00    +0.004 C 
ATOM     18  C   UNL     1      -1.897  -1.890   0.000  0.00  0.00    +0.004 C 
ATOM     19  C   UNL     1      -3.363  -0.469   0.000  0.00  0.00    +0.169 C 
ATOM     20  C   UNL     1      -3.363   0.513   0.000  0.00  0.00    +0.044 C 
ATOM     21  C   UNL     1      -1.004  -0.953   0.000  0.00  0.00    +0.000 C 
ATOM     22  C   UNL     1      -0.236  -0.469   0.000  0.00  0.00    +0.000 C 
ATOM     23  C   UNL     1      -1.758   1.419   0.000  0.00  0.00    +0.000 C 
ATOM     24  C   UNL     1      -2.589   0.953   0.000  0.00  0.00    +0.004 C 
ATOM     25  C   UNL     1      -0.236   0.513   0.000  0.00  0.00    +0.000 C 
ATOM     26  C   UNL     1      -0.236   1.387   0.000  0.00  0.00    +0.000 C 
ENDROOT
BRANCH   7  27
ATOM     27  C   UNL     1       1.142   4.244   0.000  0.00  0.00    -0.044 C 
ATOM     28  C   UNL     1       0.205   4.092   0.000  0.00  0.00    +0.026 C 
ATOM     29  C   UNL     1       1.500   5.162   0.000  0.00  0.00    -0.009 C 
ENDBRANCH   7  27
BRANCH   5  30
ATOM     30  C   UNL     1       3.526   1.312   0.000  0.00  0.00    +0.208 C 
BRANCH  30  31
ATOM     31  O   UNL     1       4.413   1.796   0.000  0.00  0.00    -0.448 OA
BRANCH  31  32
ATOM     32  C   UNL     1       5.276   1.280   0.000  0.00  0.00    +0.318 C 
ATOM     33  O   UNL     1       6.288   1.677   0.000  0.00  0.00    -0.250 OA
BRANCH  32  34
ATOM     34  C   UNL     1       5.263   0.286   0.000  0.00  0.00    +0.121 C 
BRANCH  34  35
ATOM     35  C   UNL     1       6.125  -0.230   0.000  0.00  0.00    +0.126 C 
BRANCH  35  36
ATOM     36  C   UNL     1       6.106  -1.211   0.000  0.00  0.00    +0.365 C 
ATOM     37  O   UNL     1       5.244  -1.740   0.000  0.00  0.00    -0.246 OA
ATOM     38  O   UNL     1       6.936  -1.740   0.000  0.00  0.00    -0.246 OA
ENDBRANCH  35  36
ENDBRANCH  34  35
ENDBRANCH  32  34
ENDBRANCH  31  32
ENDBRANCH  30  31
ENDBRANCH   5  30
BRANCH  19  39
ATOM     39  O   UNL     1      -4.520  -1.180   0.000  0.00  0.00    -0.452 OA
BRANCH  39  40
ATOM     40  C   UNL     1      -4.495  -2.192   0.000  0.00  0.00    +0.317 C 
ATOM     41  O   UNL     1      -3.646  -2.765   0.000  0.00  0.00    -0.250 OA
BRANCH  40  42
ATOM     42  C   UNL     1      -5.307  -2.658   0.000  0.00  0.00    +0.121 C 
BRANCH  42  43
ATOM     43  C   UNL     1      -5.307  -3.652   0.000  0.00  0.00    +0.126 C 
BRANCH  43  44
ATOM     44  C   UNL     1      -6.156  -4.137   0.000  0.00  0.00    +0.365 C 
ATOM     45  O   UNL     1      -6.936  -3.608   0.000  0.00  0.00    -0.246 OA
ATOM     46  O   UNL     1      -6.169  -5.162   0.000  0.00  0.00    -0.246 OA
ENDBRANCH  43  44
ENDBRANCH  42  43
ENDBRANCH  40  42
ENDBRANCH  39  40
ENDBRANCH  19  39
TORSDOF 12
ENDMDL
MODEL      255
REMARK  Name = 9a,11a-dimethyl-1-(6-methylheptan-2-yl)-1H,2H,3H,3aH,3bH,4H,6H,7H,8H,9H,9aH,9bH,10H,11H,11aH-cyclopenta[a]phenanthren-7-ol
REMARK  5 active torsions:
REMARK  status: ('A' for Active; 'I' for Inactive)
REMARK    1  A    between atoms: C_7  and  C_16
REMARK    2  A    between atoms: C_16  and  C_23
REMARK    3  A    between atoms: C_22  and  C_23
REMARK    4  A    between atoms: C_22  and  C_25
REMARK    5  A    between atoms: C_25  and  C_26
REMARK                            x       y       z     vdW  Elec       q    Type
REMARK                         _______ _______ _______ _____ _____    ______ ____
ROOT
ATOM      1  C   UNL     1      -0.119   0.557   0.000  0.00  0.00    +0.000 C 
ATOM      2  C   UNL     1      -0.119   1.511   0.000  0.00  0.00    +0.000 C 
ATOM      3  C   UNL     1      -0.999   1.039   0.000  0.00  0.00    +0.000 C 
ATOM      4  C   UNL     1      -1.890   0.557   0.000  0.00  0.00    +0.000 C 
ATOM      5  C   UNL     1      -1.890  -0.477   0.000  0.00  0.00    +0.004 C 
ATOM      6  C   UNL     1      -0.999  -0.986   0.000  0.00  0.00    +0.005 C 
ATOM      7  C   UNL     1      -0.999  -2.004   0.000  0.00  0.00    +0.025 C 
ATOM      8  C   UNL     1      -1.890  -2.513   0.000  0.00  0.00    -0.035 C 
ATOM      9  C   UNL     1      -2.754  -2.004   0.000  0.00  0.00    -0.047 C 
ATOM     10  C   UNL     1      -3.634  -2.513   0.000  0.00  0.00    +0.055 C 
ATOM     11  C   UNL     1      -4.498  -2.004   0.000  0.00  0.00    +0.156 C 
ATOM     12  O   UNL     1      -5.362  -2.513   0.000  0.00  0.00    -0.223 OA
ATOM     13  C   UNL     1      -4.498  -0.986   0.000  0.00  0.00    +0.034 C 
ATOM     14  C   UNL     1      -3.634  -0.477   0.000  0.00  0.00    +0.006 C 
ATOM     15  C   UNL     1      -2.754  -0.986   0.000  0.00  0.00    +0.015 C 
ATOM     16  C   UNL     1      -2.754  -0.106   0.000  0.00  0.00    +0.004 C 
ATOM     17  C   UNL     1       0.819   0.838   0.000  0.00  0.00    +0.000 C 
ATOM     18  C   UNL     1       1.418   0.058   0.000  0.00  0.00    +0.000 C 
ATOM     19  C   UNL     1       0.846  -0.779   0.000  0.00  0.00    +0.000 C 
ATOM     20  C   UNL     1      -0.119  -0.488   0.000  0.00  0.00    +0.000 C 
ENDROOT
BRANCH  17  21
ATOM     21  C   UNL     1       1.110   1.792   0.000  0.00  0.00    +0.000 C 
ATOM     22  C   UNL     1       0.437   2.513   0.000  0.00  0.00    +0.000 C 
BRANCH  21  23
ATOM     23  C   UNL     1       2.081   2.020   0.000  0.00  0.00    +0.000 C 
BRANCH  23  24
ATOM     24  C   UNL     1       2.754   1.293   0.000  0.00  0.00    +0.000 C 
BRANCH  24  25
ATOM     25  C   UNL     1       3.719   1.521   0.000  0.00  0.00    +0.000 C 
BRANCH  25  26
ATOM     26  C   UNL     1       4.408   0.811   0.000  0.00  0.00    +0.000 C 
ATOM     27  C   UNL     1       5.362   1.039   0.000  0.00  0.00    +0.000 C 
ATOM     28  C   UNL     1       4.143  -0.143   0.000  0.00  0.00    +0.000 C 
ENDBRANCH  25  26
ENDBRANCH  24  25
ENDBRANCH  23  24
ENDBRANCH  21  23
ENDBRANCH  17  21
TORSDOF 5
ENDMDL
MODEL      256
REMARK  Name = 1,1,4,7-tetramethyl-decahydro-1H-cyclopropa[e]azulen-4-ol
REMARK  0 active torsions:
REMARK  status: ('A' for Active; 'I' for Inactive)
REMARK                            x       y       z     vdW  Elec       q    Type
REMARK                         _______ _______ _______ _____ _____    ______ ____
ROOT
ATOM      1  C   UNL     1       0.332  -0.886   0.000  0.00  0.00    +0.000 C 
ATOM      2  C   UNL     1      -0.453  -0.263   0.000  0.00  0.00    +0.002 C 
ATOM      3  C   UNL     1      -1.414  -0.564   0.000  0.00  0.00    +0.000 C 
ATOM      4  C   UNL     1      -1.736  -1.525   0.000  0.00  0.00    +0.000 C 
ATOM      5  C   UNL     1      -1.974   0.238   0.000  0.00  0.00    +0.000 C 
ATOM      6  C   UNL     1      -1.414   1.061   0.000  0.00  0.00    +0.002 C 
ATOM      7  C   UNL     1      -0.453   0.760   0.000  0.00  0.00    +0.028 C 
ATOM      8  C   UNL     1       0.332   1.383   0.000  0.00  0.00    +0.127 C 
ATOM      9  C   UNL     1       1.293   1.161   0.000  0.00  0.00    +0.030 C 
ATOM     10  C   UNL     1       1.736   0.280   0.000  0.00  0.00    +0.003 C 
ATOM     11  C   UNL     1      -0.031   2.306   0.000  0.00  0.00    +0.033 C 
ATOM     12  O   UNL     1       1.092   2.005   0.000  0.00  0.00    -0.226 OA
ATOM     13  C   UNL     1       1.293  -0.664   0.000  0.00  0.00    +0.000 C 
ATOM     14  C   UNL     1       0.992  -1.604   0.000  0.00  0.00    +0.000 C 
ATOM     15  C   UNL     1       1.974  -1.905   0.000  0.00  0.00    +0.000 C 
ATOM     16  C   UNL     1       0.269  -2.306   0.000  0.00  0.00    +0.000 C 
ENDROOT
TORSDOF 0
ENDMDL
MODEL      257
REMARK  Name = 5-[(6-carboxy-3,4,5-trihydroxyoxan-2-yl)oxy]-6-[(11-carboxy-4,4,6a,6b,8a,11,14b-heptamethyl-14-oxo-1,2,3,4,4a,5,6,6a,6b,7,8,8a,9,10,11,12,12a,14,14a,14b-icosahydropicen-3-yl)oxy]-3,4-dihydroxyoxane-2- carboxylic acid
REMARK  7 active torsions:
REMARK  status: ('A' for Active; 'I' for Inactive)
REMARK    1  A    between atoms: C_5  and  O_22
REMARK    2  A    between atoms: C_6  and  C_27
REMARK    3  A    between atoms: C_7  and  C_28
REMARK    4  A    between atoms: C_9  and  O_22
REMARK    5  A    between atoms: C_10  and  O_29
REMARK    6  A    between atoms: C_24  and  C_32
REMARK    7  A    between atoms: O_29  and  C_30
REMARK                            x       y       z     vdW  Elec       q    Type
REMARK                         _______ _______ _______ _____ _____    ______ ____
ROOT
ATOM      1  C   UNL     1       2.353   2.899   0.000  0.00  0.00    -0.042 C 
ATOM      2  C   UNL     1       3.195   3.491   0.000  0.00  0.00    +0.019 C 
ATOM      3  C   UNL     1       4.043   3.001   0.000  0.00  0.00    +0.003 C 
ATOM      4  C   UNL     1       4.986   2.425   0.000  0.00  0.00    +0.000 C 
ATOM      5  C   UNL     1       4.885   3.491   0.000  0.00  0.00    +0.001 C 
ATOM      6  C   UNL     1       4.885   4.461   0.000  0.00  0.00    +0.011 C 
ATOM      7  C   UNL     1       4.043   4.946   0.000  0.00  0.00    +0.094 C 
ATOM      8  C   UNL     1       3.195   5.473   0.000  0.00  0.00    +0.011 C 
ATOM      9  C   UNL     1       4.043   2.020   0.000  0.00  0.00    +0.001 C 
ATOM     10  C   UNL     1       3.195   1.530   0.000  0.00  0.00    +0.004 C 
ATOM     11  C   UNL     1       3.195   4.461   0.000  0.00  0.00    +0.015 C 
ATOM     12  C   UNL     1       1.676   3.310   0.000  0.00  0.00    +0.029 C 
ATOM     13  C   UNL     1       0.999   2.899   0.000  0.00  0.00    +0.172 C 
ATOM     14  O   UNL     1       0.152   3.374   0.000  0.00  0.00    -0.291 OA
ATOM     15  C   UNL     1       0.999   2.105   0.000  0.00  0.00    +0.062 C 
ATOM     16  C   UNL     1       1.676   1.737   0.000  0.00  0.00    +0.010 C 
ATOM     17  C   UNL     1       1.676   2.489   0.000  0.00  0.00    +0.001 C 
ATOM     18  C   UNL     1       1.676   0.879   0.000  0.00  0.00    +0.001 C 
ATOM     19  C   UNL     1       0.999   0.442   0.000  0.00  0.00    +0.000 C 
ATOM     20  C   UNL     1       0.317   0.879   0.000  0.00  0.00    +0.003 C 
ATOM     21  C   UNL     1      -0.397   0.442   0.000  0.00  0.00    +0.025 C 
ATOM     22  C   UNL     1      -1.090   0.879   0.000  0.00  0.00    +0.118 C 
ATOM     23  C   UNL     1      -1.090   1.737   0.000  0.00  0.00    +0.030 C 
ATOM     24  C   UNL     1      -0.397   2.105   0.000  0.00  0.00    +0.003 C 
ATOM     25  C   UNL     1      -0.898  -0.527   0.000  0.00  0.00    +0.002 C 
ATOM     26  C   UNL     1       0.189  -0.362   0.000  0.00  0.00    +0.002 C 
ATOM     27  C   UNL     1       0.317   1.737   0.000  0.00  0.00    +0.007 C 
ATOM     28  C   UNL     1       0.333   2.542   0.000  0.00  0.00    +0.000 C 
ATOM     29  C   UNL     1       2.353   2.105   0.000  0.00  0.00    +0.016 C 
ATOM     30  C   UNL     1       2.364   1.199   0.000  0.00  0.00    +0.004 C 
ENDROOT
BRANCH   7  31
ATOM     31  C   UNL     1       4.858   5.500   0.000  0.00  0.00    +0.364 C 
ATOM     32  O   UNL     1       5.732   5.010   0.000  0.00  0.00    -0.246 OA
ATOM     33  O   UNL     1       4.847   6.540   0.000  0.00  0.00    -0.246 OA
ENDBRANCH   7  31
BRANCH  22  34
ATOM     34  O   UNL     1      -1.841   0.442   0.000  0.00  0.00    -0.331 OA
BRANCH  34  35
ATOM     35  C   UNL     1      -1.841  -1.013   0.000  0.00  0.00    +0.267 C 
ATOM     36  O   UNL     1      -2.646   0.011   0.000  0.00  0.00    -0.317 OA
ATOM     37  C   UNL     1      -4.133   0.011   0.000  0.00  0.00    +0.253 C 
ATOM     38  C   UNL     1      -4.927  -1.013   0.000  0.00  0.00    +0.223 C 
ATOM     39  C   UNL     1      -4.133  -1.961   0.000  0.00  0.00    +0.217 C 
ATOM     40  O   UNL     1      -4.133  -1.028   0.000  0.00  0.00    -0.217 OA
ATOM     41  O   UNL     1      -4.927  -1.897   0.000  0.00  0.00    -0.217 OA
ATOM     42  C   UNL     1      -2.646  -1.961   0.000  0.00  0.00    +0.207 C 
BRANCH  37  43
ATOM     43  C   UNL     1      -4.133   0.640   0.000  0.00  0.00    +0.394 C 
ATOM     44  O   UNL     1      -4.757   0.954   0.000  0.00  0.00    -0.243 OA
ATOM     45  O   UNL     1      -3.366   1.082   0.000  0.00  0.00    -0.243 OA
ENDBRANCH  37  43
BRANCH  42  46
ATOM     46  O   UNL     1      -2.646  -3.139   0.000  0.00  0.00    -0.323 OA
BRANCH  46  47
ATOM     47  C   UNL     1      -2.646  -4.605   0.000  0.00  0.00    +0.270 C 
ATOM     48  C   UNL     1      -3.392  -5.607   0.000  0.00  0.00    +0.241 C 
ATOM     49  O   UNL     1      -3.392  -6.540   0.000  0.00  0.00    -0.215 OA
ATOM     50  C   UNL     1      -4.901  -5.607   0.000  0.00  0.00    +0.220 C 
ATOM     51  O   UNL     1      -4.901  -4.647   0.000  0.00  0.00    -0.217 OA
ATOM     52  C   UNL     1      -5.705  -4.605   0.000  0.00  0.00    +0.223 C 
ATOM     53  C   UNL     1      -4.901  -3.560   0.000  0.00  0.00    +0.253 C 
ATOM     54  O   UNL     1      -5.705  -5.772   0.000  0.00  0.00    -0.217 OA
ATOM     55  O   UNL     1      -3.392  -3.560   0.000  0.00  0.00    -0.317 OA
BRANCH  53  56
ATOM     56  C   UNL     1      -4.901  -2.884   0.000  0.00  0.00    +0.394 C 
ATOM     57  O   UNL     1      -5.732  -2.436   0.000  0.00  0.00    -0.243 OA
ATOM     58  O   UNL     1      -4.325  -2.500   0.000  0.00  0.00    -0.243 OA
ENDBRANCH  53  56
ENDBRANCH  46  47
ENDBRANCH  42  46
ENDBRANCH  34  35
ENDBRANCH  22  34
TORSDOF 7
ENDMDL
MODEL      258
REMARK  Name = 14-(ACETYLOXY)-5,9,13-TRIMETHYLTETRACYCLO[11.2.1.0^(1,10).0^(4,9)]HEXADECANE-5-CARBOXYLIC ACID
REMARK  3 active torsions:
REMARK  status: ('A' for Active; 'I' for Inactive)
REMARK    1  A    between atoms: C_5  and  C_10
REMARK    2  A    between atoms: C_6  and  O_8
REMARK    3  A    between atoms: O_8  and  C_14
REMARK                            x       y       z     vdW  Elec       q    Type
REMARK                         _______ _______ _______ _____ _____    ______ ____
ROOT
ATOM      1  C   UNL     1      -0.459   0.491   0.000  0.00  0.00    +0.004 C 
ATOM      2  C   UNL     1      -0.459  -0.426   0.000  0.00  0.00    -0.000 C 
ATOM      3  C   UNL     1      -1.275  -0.920   0.000  0.00  0.00    -0.003 C 
ATOM      4  C   UNL     1      -2.091  -0.426   0.000  0.00  0.00    +0.023 C 
ATOM      5  C   UNL     1      -2.091   0.491   0.000  0.00  0.00    -0.003 C 
ATOM      6  C   UNL     1      -2.091   1.444   0.000  0.00  0.00    -0.000 C 
ATOM      7  C   UNL     1      -2.902   0.975   0.000  0.00  0.00    -0.000 C 
ATOM      8  C   UNL     1      -3.729   0.491   0.000  0.00  0.00    +0.001 C 
ATOM      9  C   UNL     1      -3.729  -0.426   0.000  0.00  0.00    +0.010 C 
ATOM     10  C   UNL     1      -2.902  -0.925   0.000  0.00  0.00    +0.090 C 
ATOM     11  C   UNL     1      -3.819  -1.519   0.000  0.00  0.00    +0.011 C 
ATOM     12  C   UNL     1       0.494  -0.108   0.000  0.00  0.00    +0.044 C 
ATOM     13  C   UNL     1       1.502   1.237   0.000  0.00  0.00    +0.169 C 
ATOM     14  C   UNL     1       0.353   1.942   0.000  0.00  0.00    +0.037 C 
ATOM     15  C   UNL     1       1.386   2.587   0.000  0.00  0.00    +0.004 C 
ATOM     16  C   UNL     1      -0.489   2.386   0.000  0.00  0.00    +0.003 C 
ATOM     17  C   UNL     1      -1.275   1.927   0.000  0.00  0.00    +0.000 C 
ATOM     18  C   UNL     1       0.353   0.975   0.000  0.00  0.00    +0.004 C 
ATOM     19  C   UNL     1      -1.275   0.975   0.000  0.00  0.00    -0.000 C 
ENDROOT
BRANCH  10  20
ATOM     20  C   UNL     1      -2.419  -1.736   0.000  0.00  0.00    +0.364 C 
ATOM     21  O   UNL     1      -1.406  -1.736   0.000  0.00  0.00    -0.246 OA
ATOM     22  O   UNL     1      -2.922  -2.587   0.000  0.00  0.00    -0.246 OA
ENDBRANCH  10  20
BRANCH  13  23
ATOM     23  O   UNL     1       2.348   1.383   0.000  0.00  0.00    -0.452 OA
BRANCH  23  24
ATOM     24  C   UNL     1       2.887   0.552   0.000  0.00  0.00    +0.317 C 
ATOM     25  C   UNL     1       3.819   0.693   0.000  0.00  0.00    +0.121 C 
ATOM     26  O   UNL     1       2.514  -0.436   0.000  0.00  0.00    -0.250 OA
ENDBRANCH  23  24
ENDBRANCH  13  23
TORSDOF 3
ENDMDL
MODEL      259
REMARK  Name = methyl 10-hydroxy-2,4a,6a,6b,9,9,12a-heptamethyl-13-oxo-1,2,3,4,4a,5,6,6a,6b,7,8,8a,9,10,11,12,12a,12b,13,14b-icosahydropicene-2-carboxylate
REMARK  2 active torsions:
REMARK  status: ('A' for Active; 'I' for Inactive)
REMARK    1  A    between atoms: C_11  and  C_15
REMARK    2  A    between atoms: C_15  and  O_29
REMARK                            x       y       z     vdW  Elec       q    Type
REMARK                         _______ _______ _______ _____ _____    ______ ____
ROOT
ATOM      1  C   UNL     1       0.518   0.188   0.000  0.00  0.00    -0.046 C 
ATOM      2  C   UNL     1       1.374   0.678   0.000  0.00  0.00    +0.033 C 
ATOM      3  C   UNL     1       2.239   0.188   0.000  0.00  0.00    -0.000 C 
ATOM      4  C   UNL     1       3.137  -0.354   0.000  0.00  0.00    +0.000 C 
ATOM      5  C   UNL     1       3.095   0.701   0.000  0.00  0.00    +0.001 C 
ATOM      6  C   UNL     1       3.095   1.709   0.000  0.00  0.00    +0.011 C 
ATOM      7  C   UNL     1       2.225   2.200   0.000  0.00  0.00    +0.090 C 
ATOM      8  C   UNL     1       1.351   2.676   0.000  0.00  0.00    +0.011 C 
ATOM      9  C   UNL     1       2.239  -0.812   0.000  0.00  0.00    +0.000 C 
ATOM     10  C   UNL     1       1.374  -1.298   0.000  0.00  0.00    +0.004 C 
ATOM     11  C   UNL     1       1.360   1.687   0.000  0.00  0.00    +0.010 C 
ATOM     12  C   UNL     1      -0.370   0.654   0.000  0.00  0.00    +0.029 C 
ATOM     13  C   UNL     1      -1.194   0.169   0.000  0.00  0.00    +0.172 C 
ATOM     14  O   UNL     1      -2.036   0.701   0.000  0.00  0.00    -0.291 OA
ATOM     15  C   UNL     1      -1.194  -0.831   0.000  0.00  0.00    +0.062 C 
ATOM     16  C   UNL     1      -0.329  -1.353   0.000  0.00  0.00    +0.010 C 
ATOM     17  C   UNL     1      -0.338  -0.456   0.000  0.00  0.00    +0.001 C 
ATOM     18  C   UNL     1      -0.329  -2.297   0.000  0.00  0.00    +0.001 C 
ATOM     19  C   UNL     1      -1.194  -2.820   0.000  0.00  0.00    +0.000 C 
ATOM     20  C   UNL     1      -2.059  -2.297   0.000  0.00  0.00    +0.003 C 
ATOM     21  C   UNL     1      -2.924  -2.829   0.000  0.00  0.00    +0.028 C 
ATOM     22  C   UNL     1      -3.780  -2.297   0.000  0.00  0.00    +0.152 C 
ATOM     23  O   UNL     1      -4.803  -2.829   0.000  0.00  0.00    -0.223 OA
ATOM     24  C   UNL     1      -3.780  -1.353   0.000  0.00  0.00    +0.033 C 
ATOM     25  C   UNL     1      -2.924  -0.831   0.000  0.00  0.00    +0.003 C 
ATOM     26  C   UNL     1      -3.882  -3.463   0.000  0.00  0.00    +0.003 C 
ATOM     27  C   UNL     1      -2.401  -3.685   0.000  0.00  0.00    +0.003 C 
ATOM     28  C   UNL     1      -2.059  -1.353   0.000  0.00  0.00    +0.007 C 
ATOM     29  C   UNL     1      -2.059  -0.345   0.000  0.00  0.00    +0.000 C 
ATOM     30  C   UNL     1       0.518  -0.831   0.000  0.00  0.00    +0.015 C 
ATOM     31  C   UNL     1       0.518  -1.798   0.000  0.00  0.00    +0.004 C 
ENDROOT
BRANCH   7  32
ATOM     32  C   UNL     1       3.081   2.686   0.000  0.00  0.00    +0.316 C 
ATOM     33  O   UNL     1       3.058   3.685   0.000  0.00  0.00    -0.250 OA
BRANCH  32  34
ATOM     34  O   UNL     1       3.970   2.232   0.000  0.00  0.00    -0.444 OA
ATOM     35  C   UNL     1       4.803   2.764   0.000  0.00  0.00    +0.256 C 
ENDBRANCH  32  34
ENDBRANCH   7  32
TORSDOF 2
ENDMDL
MODEL      260
REMARK  Name = [9-hydroxy-5a,5b,8,8,11a-pentamethyl-1-(prop-1-en-2-yl)-icosahydro-1H-cyclopenta[a]chrysen-3a-yl]methyl acetate
REMARK  4 active torsions:
REMARK  status: ('A' for Active; 'I' for Inactive)
REMARK    1  A    between atoms: C_9  and  C_23
REMARK    2  A    between atoms: C_10  and  C_17
REMARK    3  A    between atoms: C_20  and  O_25
REMARK    4  A    between atoms: C_23  and  O_25
REMARK                            x       y       z     vdW  Elec       q    Type
REMARK                         _______ _______ _______ _____ _____    ______ ____
ROOT
ATOM      1  C   UNL     1      -0.348  -0.608   0.000  0.00  0.00    +0.000 C 
ATOM      2  C   UNL     1      -0.339  -1.641   0.000  0.00  0.00    +0.000 C 
ATOM      3  C   UNL     1       0.617  -1.257   0.000  0.00  0.00    +0.000 C 
ATOM      4  C   UNL     1       1.582  -0.708   0.000  0.00  0.00    +0.004 C 
ATOM      5  C   UNL     1       1.582   0.402   0.000  0.00  0.00    +0.041 C 
ATOM      6  C   UNL     1       0.617   0.951   0.000  0.00  0.00    +0.007 C 
ATOM      7  C   UNL     1       0.891   1.915   0.000  0.00  0.00    +0.018 C 
ATOM      8  C   UNL     1       1.847   2.016   0.000  0.00  0.00    +0.004 C 
ATOM      9  C   UNL     1       2.281   1.125   0.000  0.00  0.00    +0.004 C 
ATOM     10  C   UNL     1      -0.348   0.270   0.000  0.00  0.00    +0.000 C 
ATOM     11  C   UNL     1      -1.106   0.741   0.000  0.00  0.00    +0.000 C 
ATOM     12  C   UNL     1      -1.883   0.270   0.000  0.00  0.00    +0.000 C 
ATOM     13  C   UNL     1      -1.883  -0.608   0.000  0.00  0.00    +0.000 C 
ATOM     14  C   UNL     1      -2.633  -1.038   0.000  0.00  0.00    +0.000 C 
ATOM     15  C   UNL     1      -2.633  -2.025   0.000  0.00  0.00    +0.002 C 
ATOM     16  C   UNL     1      -3.456  -2.505   0.000  0.00  0.00    +0.028 C 
ATOM     17  C   UNL     1      -2.775  -3.437   0.000  0.00  0.00    +0.003 C 
ATOM     18  C   UNL     1      -3.990  -3.593   0.000  0.00  0.00    +0.003 C 
ATOM     19  C   UNL     1      -4.224  -2.025   0.000  0.00  0.00    +0.152 C 
ATOM     20  C   UNL     1      -4.224  -1.038   0.000  0.00  0.00    +0.033 C 
ATOM     21  O   UNL     1      -5.375  -2.738   0.000  0.00  0.00    -0.223 OA
ATOM     22  C   UNL     1      -1.883  -2.505   0.000  0.00  0.00    +0.000 C 
ATOM     23  C   UNL     1      -1.106  -2.025   0.000  0.00  0.00    +0.000 C 
ATOM     24  C   UNL     1      -2.633  -0.137   0.000  0.00  0.00    +0.000 C 
ATOM     25  C   UNL     1      -3.456  -0.608   0.000  0.00  0.00    +0.003 C 
ATOM     26  C   UNL     1      -1.106  -1.038   0.000  0.00  0.00    +0.000 C 
ATOM     27  C   UNL     1      -1.106  -0.169   0.000  0.00  0.00    +0.000 C 
ENDROOT
BRANCH   7  28
ATOM     28  C   UNL     1       0.274   2.683   0.000  0.00  0.00    -0.044 C 
ATOM     29  C   UNL     1      -0.676   2.528   0.000  0.00  0.00    +0.026 C 
ATOM     30  C   UNL     1       0.626   3.593   0.000  0.00  0.00    -0.009 C 
ENDBRANCH   7  28
BRANCH   5  31
ATOM     31  C   UNL     1       2.633  -0.233   0.000  0.00  0.00    +0.208 C 
BRANCH  31  32
ATOM     32  O   UNL     1       3.524   0.247   0.000  0.00  0.00    -0.448 OA
BRANCH  32  33
ATOM     33  C   UNL     1       4.388  -0.279   0.000  0.00  0.00    +0.318 C 
ATOM     34  C   UNL     1       4.370  -1.266   0.000  0.00  0.00    +0.121 C 
ATOM     35  O   UNL     1       5.375   0.128   0.000  0.00  0.00    -0.250 OA
ENDBRANCH  32  33
ENDBRANCH  31  32
ENDBRANCH   5  31
TORSDOF 4
ENDMDL
MODEL      261
REMARK  Name = 3a-(hydroxymethyl)-5a,5b,8,8,11a-pentamethyl-1-(prop-1-en-2-yl)-icosahydro-1H-cyclopenta[a]chrysen-9-yl acetate
REMARK  4 active torsions:
REMARK  status: ('A' for Active; 'I' for Inactive)
REMARK    1  A    between atoms: C_9  and  C_18
REMARK    2  A    between atoms: C_10  and  C_32
REMARK    3  A    between atoms: C_11  and  O_19
REMARK    4  A    between atoms: O_19  and  C_21
REMARK                            x       y       z     vdW  Elec       q    Type
REMARK                         _______ _______ _______ _____ _____    ______ ____
ROOT
ATOM      1  C   UNL     1       0.974  -0.252   0.000  0.00  0.00    +0.000 C 
ATOM      2  C   UNL     1       0.983  -1.288   0.000  0.00  0.00    +0.000 C 
ATOM      3  C   UNL     1       1.941  -0.903   0.000  0.00  0.00    +0.000 C 
ATOM      4  C   UNL     1       2.909  -0.353   0.000  0.00  0.00    +0.003 C 
ATOM      5  C   UNL     1       2.909   0.761   0.000  0.00  0.00    +0.031 C 
ATOM      6  C   UNL     1       1.941   1.311   0.000  0.00  0.00    +0.006 C 
ATOM      7  C   UNL     1       2.216   2.278   0.000  0.00  0.00    +0.018 C 
ATOM      8  C   UNL     1       3.175   2.379   0.000  0.00  0.00    +0.004 C 
ATOM      9  C   UNL     1       3.610   1.485   0.000  0.00  0.00    +0.003 C 
ATOM     10  C   UNL     1       0.974   0.628   0.000  0.00  0.00    +0.000 C 
ATOM     11  C   UNL     1       0.213   1.100   0.000  0.00  0.00    +0.000 C 
ATOM     12  C   UNL     1      -0.566   0.628   0.000  0.00  0.00    +0.000 C 
ATOM     13  C   UNL     1      -0.566  -0.252   0.000  0.00  0.00    +0.000 C 
ATOM     14  C   UNL     1      -1.318  -0.683   0.000  0.00  0.00    +0.000 C 
ATOM     15  C   UNL     1      -1.318  -1.673   0.000  0.00  0.00    +0.003 C 
ATOM     16  C   UNL     1      -2.143  -2.155   0.000  0.00  0.00    +0.037 C 
ATOM     17  C   UNL     1      -2.679  -3.245   0.000  0.00  0.00    +0.004 C 
ATOM     18  C   UNL     1      -1.460  -3.090   0.000  0.00  0.00    +0.004 C 
ATOM     19  C   UNL     1      -2.913  -1.673   0.000  0.00  0.00    +0.169 C 
ATOM     20  C   UNL     1      -2.913  -0.683   0.000  0.00  0.00    +0.044 C 
ATOM     21  C   UNL     1      -0.566  -2.155   0.000  0.00  0.00    +0.000 C 
ATOM     22  C   UNL     1       0.213  -1.673   0.000  0.00  0.00    +0.000 C 
ATOM     23  C   UNL     1      -1.318   0.220   0.000  0.00  0.00    +0.000 C 
ATOM     24  C   UNL     1      -2.143  -0.252   0.000  0.00  0.00    +0.004 C 
ATOM     25  C   UNL     1       0.213  -0.683   0.000  0.00  0.00    +0.000 C 
ATOM     26  C   UNL     1       0.213   0.188   0.000  0.00  0.00    +0.000 C 
ENDROOT
BRANCH   7  27
ATOM     27  C   UNL     1       1.598   3.049   0.000  0.00  0.00    -0.044 C 
ATOM     28  C   UNL     1       0.644   2.893   0.000  0.00  0.00    +0.026 C 
ATOM     29  C   UNL     1       1.950   3.961   0.000  0.00  0.00    -0.009 C 
ENDBRANCH   7  27
BRANCH   5  30
ATOM     30  C   UNL     1       3.963   0.124   0.000  0.00  0.00    +0.182 C 
ATOM     31  O   UNL     1       4.857   0.605   0.000  0.00  0.00    -0.220 OA
ENDBRANCH   5  30
BRANCH  19  32
ATOM     32  O   UNL     1      -4.069  -2.388   0.000  0.00  0.00    -0.452 OA
BRANCH  32  33
ATOM     33  C   UNL     1      -4.046  -3.378   0.000  0.00  0.00    +0.317 C 
ATOM     34  C   UNL     1      -4.857  -3.860   0.000  0.00  0.00    +0.121 C 
ATOM     35  O   UNL     1      -3.197  -3.961   0.000  0.00  0.00    -0.250 OA
ENDBRANCH  32  33
ENDBRANCH  19  32
TORSDOF 4
ENDMDL
MODEL      262
REMARK  Name = 3a-[(E)-(hydroxyimino)methyl]-5a,5b,8,8,11a-pentamethyl-1-(prop-1-en-2-yl)-icosahydro-1H-cyclopenta[a]chrysen-9-yl acetate
REMARK  4 active torsions:
REMARK  status: ('A' for Active; 'I' for Inactive)
REMARK    1  A    between atoms: C_9  and  C_26
REMARK    2  A    between atoms: C_10  and  C_18
REMARK    3  A    between atoms: C_11  and  O_19
REMARK    4  A    between atoms: O_19  and  C_21
REMARK                            x       y       z     vdW  Elec       q    Type
REMARK                         _______ _______ _______ _____ _____    ______ ____
ROOT
ATOM      1  C   UNL     1       1.761  -0.784   0.000  0.00  0.00    +0.000 C 
ATOM      2  C   UNL     1       1.761  -1.720   0.000  0.00  0.00    +0.000 C 
ATOM      3  C   UNL     1       2.633  -1.288   0.000  0.00  0.00    +0.000 C 
ATOM      4  C   UNL     1       3.526  -0.784   0.000  0.00  0.00    +0.006 C 
ATOM      5  C   UNL     1       3.526   0.241   0.000  0.00  0.00    +0.040 C 
ATOM      6  C   UNL     1       2.633   0.733   0.000  0.00  0.00    +0.009 C 
ATOM      7  C   UNL     1       2.868   1.738   0.000  0.00  0.00    +0.019 C 
ATOM      8  C   UNL     1       3.855   1.832   0.000  0.00  0.00    +0.004 C 
ATOM      9  C   UNL     1       4.253   0.878   0.000  0.00  0.00    +0.006 C 
ATOM     10  C   UNL     1       1.761   0.241   0.000  0.00  0.00    +0.001 C 
ATOM     11  C   UNL     1       0.880   0.754   0.000  0.00  0.00    +0.000 C 
ATOM     12  C   UNL     1      -0.004   0.241   0.000  0.00  0.00    +0.000 C 
ATOM     13  C   UNL     1      -0.004  -0.784   0.000  0.00  0.00    +0.000 C 
ATOM     14  C   UNL     1      -0.876  -1.288   0.000  0.00  0.00    +0.000 C 
ATOM     15  C   UNL     1      -0.876  -2.323   0.000  0.00  0.00    +0.003 C 
ATOM     16  C   UNL     1      -1.769  -2.827   0.000  0.00  0.00    +0.037 C 
ATOM     17  C   UNL     1      -2.436  -3.443   0.000  0.00  0.00    +0.004 C 
ATOM     18  C   UNL     1      -1.103  -3.443   0.000  0.00  0.00    +0.004 C 
ATOM     19  C   UNL     1      -2.650  -2.323   0.000  0.00  0.00    +0.169 C 
ATOM     20  C   UNL     1      -2.650  -1.288   0.000  0.00  0.00    +0.044 C 
ATOM     21  C   UNL     1      -0.004  -2.827   0.000  0.00  0.00    +0.000 C 
ATOM     22  C   UNL     1       0.889  -2.323   0.000  0.00  0.00    +0.000 C 
ATOM     23  C   UNL     1      -0.876  -0.404   0.000  0.00  0.00    +0.000 C 
ATOM     24  C   UNL     1      -1.769  -0.784   0.000  0.00  0.00    +0.004 C 
ATOM     25  C   UNL     1       0.898  -1.288   0.000  0.00  0.00    +0.000 C 
ATOM     26  C   UNL     1       0.889  -0.374   0.000  0.00  0.00    +0.000 C 
ENDROOT
BRANCH   7  27
ATOM     27  C   UNL     1       2.223   2.507   0.000  0.00  0.00    -0.044 C 
ATOM     28  C   UNL     1       1.239   2.344   0.000  0.00  0.00    +0.026 C 
ATOM     29  C   UNL     1       2.573   3.443   0.000  0.00  0.00    -0.009 C 
ENDBRANCH   7  27
BRANCH   5  30
ATOM     30  C   UNL     1       4.449  -0.263   0.000  0.00  0.00    +0.118 C 
ATOM     31  N   UNL     1       4.449  -1.259   0.000  0.00  0.00    -0.033 NA
ATOM     32  O   UNL     1       5.308  -1.720   0.000  0.00  0.00    -0.143 OA
ENDBRANCH   5  30
BRANCH  19  33
ATOM     33  O   UNL     1      -3.501  -2.836   0.000  0.00  0.00    -0.452 OA
BRANCH  33  34
ATOM     34  C   UNL     1      -4.364  -2.353   0.000  0.00  0.00    +0.317 C 
ATOM     35  C   UNL     1      -4.364  -1.400   0.000  0.00  0.00    +0.121 C 
ATOM     36  O   UNL     1      -5.308  -2.784   0.000  0.00  0.00    -0.250 OA
ENDBRANCH  33  34
ENDBRANCH  19  33
TORSDOF 4
ENDMDL
MODEL      263
REMARK  Name = 14-ETHYL-2-HYDROXY-4,6,19-TRIMETHOXY-16-METHYL-9,11-DIOXA-14-AZAHEPTACYCLO[10.7.2.1^(2,5).0^(1,13).0^(3,8).0^(8,12).0^(16,20)]DOCOSAN-21-YL ACETATE
REMARK  6 active torsions:
REMARK  status: ('A' for Active; 'I' for Inactive)
REMARK    1  A    between atoms: C_8  and  O_19
REMARK    2  A    between atoms: N_9  and  C_28
REMARK    3  A    between atoms: C_11  and  O_27
REMARK    4  A    between atoms: C_16  and  O_30
REMARK    5  A    between atoms: O_19  and  C_21
REMARK    6  A    between atoms: C_20  and  O_31
REMARK                            x       y       z     vdW  Elec       q    Type
REMARK                         _______ _______ _______ _____ _____    ______ ____
ROOT
ATOM      1  C   UNL     1       0.542  -0.777   0.000  0.00  0.00    +0.168 C 
ATOM      2  O   UNL     1       1.161  -1.338   0.000  0.00  0.00    -0.324 OA
ATOM      3  C   UNL     1       2.002  -0.878   0.000  0.00  0.00    +0.294 C 
ATOM      4  O   UNL     1       1.663  -0.115   0.000  0.00  0.00    -0.329 OA
ATOM      5  C   UNL     1      -0.121  -1.058   0.000  0.00  0.00    +0.197 C 
ATOM      6  C   UNL     1      -0.756  -0.750   0.000  0.00  0.00    +0.050 C 
ATOM      7  C   UNL     1      -0.908  -0.057   0.000  0.00  0.00    +0.070 C 
ATOM      8  C   UNL     1      -1.597   0.166   0.000  0.00  0.00    +0.119 C 
ATOM      9  C   UNL     1      -2.131  -0.298   0.000  0.00  0.00    +0.030 C 
ATOM     10  C   UNL     1      -1.983  -1.019   0.000  0.00  0.00    +0.004 C 
ATOM     11  C   UNL     1      -0.467   0.493   0.000  0.00  0.00    +0.135 C 
ATOM     12  C   UNL     1       0.281   0.493   0.000  0.00  0.00    +0.083 C 
ATOM     13  C   UNL     1       0.682   1.307   0.000  0.00  0.00    +0.122 C 
ATOM     14  C   UNL     1      -0.027   1.821   0.000  0.00  0.00    +0.057 C 
ATOM     15  C   UNL     1      -0.027   2.842   0.000  0.00  0.00    +0.120 C 
ATOM     16  C   UNL     1       2.918   2.020   0.000  0.00  0.00    +0.060 C 
ATOM     17  O   UNL     1       0.027   1.073   0.000  0.00  0.00    -0.225 OA
ATOM     18  C   UNL     1      -0.869   1.327   0.000  0.00  0.00    +0.036 C 
ATOM     19  C   UNL     1      -1.290  -1.244   0.000  0.00  0.00    +0.018 C 
ATOM     20  C   UNL     1      -1.905  -1.786   0.000  0.00  0.00    +0.072 C 
ATOM     21  N   UNL     1      -1.609  -0.395   0.000  0.00  0.00    -0.272 NA
ATOM     22  C   UNL     1      -1.169  -1.938   0.000  0.00  0.00    +0.002 C 
ATOM     23  C   UNL     1      -0.908   0.699   0.000  0.00  0.00    +0.093 C 
ATOM     24  C   UNL     1       0.701  -0.103   0.000  0.00  0.00    +0.129 C 
ENDROOT
BRANCH   8  25
ATOM     25  O   UNL     1      -1.749   0.859   0.000  0.00  0.00    -0.353 OA
ATOM     26  C   UNL     1      -2.653   1.147   0.000  0.00  0.00    +0.174 C 
ENDBRANCH   8  25
BRANCH  15  27
ATOM     27  O   UNL     1      -1.122   3.188   0.000  0.00  0.00    -0.353 OA
ATOM     28  C   UNL     1      -2.018   2.643   0.000  0.00  0.00    +0.174 C 
ENDBRANCH  15  27
BRANCH  13  29
ATOM     29  O   UNL     1       1.535   1.307   0.000  0.00  0.00    -0.353 OA
ATOM     30  C   UNL     1       1.141   2.035   0.000  0.00  0.00    +0.174 C 
ENDBRANCH  13  29
BRANCH  21  31
ATOM     31  C   UNL     1      -2.645  -0.617   0.000  0.00  0.00    +0.072 C 
ATOM     32  C   UNL     1      -2.918  -1.486   0.000  0.00  0.00    +0.019 C 
ENDBRANCH  21  31
BRANCH   5  33
ATOM     33  O   UNL     1      -0.113  -1.813   0.000  0.00  0.00    -0.450 OA
BRANCH  33  34
ATOM     34  C   UNL     1       0.713  -2.273   0.000  0.00  0.00    +0.318 C 
ATOM     35  C   UNL     1       0.713  -3.188   0.000  0.00  0.00    +0.121 C 
ATOM     36  O   UNL     1       1.609  -1.860   0.000  0.00  0.00    -0.250 OA
ENDBRANCH  33  34
ENDBRANCH   5  33
TORSDOF 6
ENDMDL
MODEL      264
REMARK  Name = 4-{methyl[(7S)-1,2,3,10-tetramethoxy-9-oxo-5,6,7,9-tetrahydrobenzo[a]heptalen-7-yl]amino}-2-butynyl 2-bromobenzoate
REMARK  11 active torsions:
REMARK  status: ('A' for Active; 'I' for Inactive)
REMARK    1  A    between atoms: C_5  and  O_25
REMARK    2  A    between atoms: C_6  and  O_26
REMARK    3  A    between atoms: C_9  and  N_20
REMARK    4  A    between atoms: C_10  and  C_15
REMARK    5  A    between atoms: C_12  and  O_28
REMARK    6  A    between atoms: C_14  and  O_29
REMARK    7  A    between atoms: C_15  and  O_27
REMARK    8  A    between atoms: C_17  and  C_31
REMARK    9  A    between atoms: C_18  and  C_33
REMARK   10  A    between atoms: N_20  and  C_31
REMARK   11  A    between atoms: O_27  and  C_33
REMARK                            x       y       z     vdW  Elec       q    Type
REMARK                         _______ _______ _______ _____ _____    ______ ____
ROOT
ATOM      1  C   UNL     1      -2.510  -1.062   0.000  0.00  0.00    -0.000 A 
ATOM      2  C   UNL     1      -2.957  -1.957   0.000  0.00  0.00    +0.003 A 
ATOM      3  C   UNL     1      -2.510  -2.857   0.000  0.00  0.00    +0.040 A 
ATOM      4  C   UNL     1      -1.503  -3.087   0.000  0.00  0.00    +0.177 A 
ATOM      5  C   UNL     1      -0.745  -2.463   0.000  0.00  0.00    +0.229 A 
ATOM      6  O   UNL     1       0.150  -2.875   0.000  0.00  0.00    -0.283 OA
ATOM      7  C   UNL     1      -0.756  -1.445   0.000  0.00  0.00    +0.042 A 
ATOM      8  C   UNL     1      -3.311  -0.456   0.000  0.00  0.00    +0.033 A 
ATOM      9  C   UNL     1      -3.311   0.544   0.000  0.00  0.00    -0.016 A 
ATOM     10  C   UNL     1      -2.510   1.180   0.000  0.00  0.00    +0.028 C 
ATOM     11  C   UNL     1      -1.545   0.939   0.000  0.00  0.00    +0.020 C 
ATOM     12  C   UNL     1      -1.109   0.050   0.000  0.00  0.00    +0.099 C 
ATOM     13  C   UNL     1      -4.175   1.068   0.000  0.00  0.00    +0.036 A 
ATOM     14  C   UNL     1      -5.064   0.544   0.000  0.00  0.00    +0.175 A 
ATOM     15  C   UNL     1      -5.064  -0.456   0.000  0.00  0.00    +0.206 A 
ATOM     16  C   UNL     1      -4.175  -0.968   0.000  0.00  0.00    +0.175 A 
ATOM     17  C   UNL     1      -1.545  -0.839   0.000  0.00  0.00    -0.010 A 
ENDROOT
BRANCH   4  18
ATOM     18  O   UNL     1      -1.262  -4.058   0.000  0.00  0.00    -0.468 OA
ATOM     19  C   UNL     1      -0.303  -4.329   0.000  0.00  0.00    +0.253 C 
ENDBRANCH   4  18
BRANCH  12  20
ATOM     20  N   UNL     1      -0.109   0.050   0.000  0.00  0.00    -0.263 NA
ATOM     21  C   UNL     1       0.374  -0.827   0.000  0.00  0.00    +0.090 C 
BRANCH  20  22
ATOM     22  C   UNL     1       0.386   0.915   0.000  0.00  0.00    +0.150 C 
BRANCH  22  23
ATOM     23  C   UNL     1       1.392   0.915   0.000  0.00  0.00    -0.069 C 
ATOM     24  C   UNL     1       2.381   0.915   0.000  0.00  0.00    -0.042 C 
BRANCH  24  25
ATOM     25  C   UNL     1       3.381   0.915   0.000  0.00  0.00    +0.285 C 
BRANCH  25  26
ATOM     26  O   UNL     1       3.864   1.774   0.000  0.00  0.00    -0.431 OA
BRANCH  26  27
ATOM     27  C   UNL     1       4.852   1.774   0.000  0.00  0.00    +0.343 C 
ATOM     28  O   UNL     1       5.317   0.915   0.000  0.00  0.00    -0.245 OA
BRANCH  27  29
ATOM     29  C   UNL     1       5.329   2.622   0.000  0.00  0.00    +0.082 A 
ATOM     30  C   UNL     1       4.835   3.499   0.000  0.00  0.00    +0.007 A 
ATOM     31  C   UNL     1       5.329   4.329   0.000  0.00  0.00    +0.000 A 
ATOM     32  C   UNL     1       6.318   4.317   0.000  0.00  0.00    +0.001 A 
ATOM     33  C   UNL     1       6.830   3.470   0.000  0.00  0.00    +0.007 A 
ATOM     34  C   UNL     1       6.318   2.610   0.000  0.00  0.00    +0.041 A 
ATOM     35 BR   UNL     1       6.800   1.733   0.000  0.00  0.00    -0.049 Br
ENDBRANCH  27  29
ENDBRANCH  26  27
ENDBRANCH  25  26
ENDBRANCH  24  25
ENDBRANCH  22  23
ENDBRANCH  20  22
ENDBRANCH  12  20
BRANCH  15  36
ATOM     36  O   UNL     1      -5.953  -0.968   0.000  0.00  0.00    -0.465 OA
ATOM     37  C   UNL     1      -6.830  -0.456   0.000  0.00  0.00    +0.253 C 
ENDBRANCH  15  36
BRANCH  14  38
ATOM     38  O   UNL     1      -5.953   1.080   0.000  0.00  0.00    -0.468 OA
ATOM     39  C   UNL     1      -6.830   0.574   0.000  0.00  0.00    +0.253 C 
ENDBRANCH  14  38
BRANCH  16  40
ATOM     40  O   UNL     1      -4.175  -1.957   0.000  0.00  0.00    -0.468 OA
ATOM     41  C   UNL     1      -5.052  -2.463   0.000  0.00  0.00    +0.253 C 
ENDBRANCH  16  40
TORSDOF 11
ENDMDL
MODEL      265
REMARK  Name = N-[14-(ETHYLAMINO)-3,4,5-TRIMETHOXY-13-OXOTRICYCLO[9.5.0.0^(2,7)]HEXADECA-1(16),2,4,6,11,14-HEXAEN-10-YL]ACETAMIDE
REMARK  6 active torsions:
REMARK  status: ('A' for Active; 'I' for Inactive)
REMARK    1  A    between atoms: C_4  and  O_22
REMARK    2  A    between atoms: C_6  and  O_23
REMARK    3  A    between atoms: C_10  and  N_14
REMARK    4  A    between atoms: C_11  and  O_24
REMARK    5  A    between atoms: C_12  and  N_21
REMARK    6  A    between atoms: N_21  and  C_26
REMARK                            x       y       z     vdW  Elec       q    Type
REMARK                         _______ _______ _______ _____ _____    ______ ____
ROOT
ATOM      1  C   UNL     1       0.135  -0.092   0.000  0.00  0.00    +0.000 A 
ATOM      2  C   UNL     1      -0.498  -0.886   0.000  0.00  0.00    +0.001 A 
ATOM      3  C   UNL     1      -0.272  -1.878   0.000  0.00  0.00    +0.018 A 
ATOM      4  C   UNL     1       0.621  -2.284   0.000  0.00  0.00    +0.084 A 
ATOM      5  C   UNL     1       1.566  -1.864   0.000  0.00  0.00    +0.208 A 
ATOM      6  O   UNL     1       2.360  -2.488   0.000  0.00  0.00    -0.285 OA
ATOM      7  C   UNL     1       1.812  -0.886   0.000  0.00  0.00    +0.040 A 
ATOM      8  C   UNL     1      -0.456   0.744   0.000  0.00  0.00    +0.033 A 
ATOM      9  C   UNL     1      -0.215   1.722   0.000  0.00  0.00    -0.016 A 
ATOM     10  C   UNL     1       0.664   2.161   0.000  0.00  0.00    +0.028 C 
ATOM     11  C   UNL     1       1.585   1.727   0.000  0.00  0.00    +0.023 C 
ATOM     12  C   UNL     1       1.835   0.744   0.000  0.00  0.00    +0.113 C 
ATOM     13  C   UNL     1      -0.966   2.417   0.000  0.00  0.00    +0.036 A 
ATOM     14  C   UNL     1      -1.930   2.133   0.000  0.00  0.00    +0.175 A 
ATOM     15  C   UNL     1      -2.171   1.174   0.000  0.00  0.00    +0.206 A 
ATOM     16  C   UNL     1      -1.439   0.461   0.000  0.00  0.00    +0.175 A 
ATOM     17  C   UNL     1       1.174  -0.092   0.000  0.00  0.00    -0.007 A 
ENDROOT
BRANCH  12  18
ATOM     18  N   UNL     1       2.506  -0.073   0.000  0.00  0.00    -0.307 N 
ATOM     19  H   UNL     1       3.494   0.083   0.000  0.00  0.00    +0.149 HD
ATOM     20  C   UNL     1       2.856  -0.943   0.000  0.00  0.00    +0.223 C 
ATOM     21  C   UNL     1       3.834  -0.943   0.000  0.00  0.00    +0.095 C 
ATOM     22  O   UNL     1       2.417  -1.595   0.000  0.00  0.00    -0.275 OA
ENDBRANCH  12  18
BRANCH   4  23
ATOM     23  N   UNL     1       0.602  -3.296   0.000  0.00  0.00    -0.330 N 
ATOM     24  H   UNL     1      -0.262  -3.792   0.000  0.00  0.00    +0.147 HD
BRANCH  23  25
ATOM     25  C   UNL     1       1.458  -3.792   0.000  0.00  0.00    +0.087 C 
ATOM     26  C   UNL     1       2.322  -3.305   0.000  0.00  0.00    +0.023 C 
ENDBRANCH  23  25
ENDBRANCH   4  23
BRANCH  15  27
ATOM     27  O   UNL     1      -3.135   0.914   0.000  0.00  0.00    -0.465 OA
ATOM     28  C   UNL     1      -3.834   1.628   0.000  0.00  0.00    +0.253 C 
ENDBRANCH  15  27
BRANCH  14  29
ATOM     29  O   UNL     1      -2.643   2.804   0.000  0.00  0.00    -0.468 OA
ATOM     30  C   UNL     1      -2.417   3.792   0.000  0.00  0.00    +0.253 C 
ENDBRANCH  14  29
BRANCH  16  31
ATOM     31  O   UNL     1      -1.689  -0.517   0.000  0.00  0.00    -0.468 OA
ATOM     32  C   UNL     1      -2.643  -0.773   0.000  0.00  0.00    +0.253 C 
ENDBRANCH  16  31
TORSDOF 6
ENDMDL
MODEL      266
REMARK  Name = 14-(ETHYLAMINO)-3,4,5-TRIMETHOXY-10-(METHYLAMINO)TRICYCLO[9.5.0.0^(2,7)]HEXADECA-1(16),2,4,6,11,14-HEXAEN-13-ONE
REMARK  6 active torsions:
REMARK  status: ('A' for Active; 'I' for Inactive)
REMARK    1  A    between atoms: C_4  and  O_19
REMARK    2  A    between atoms: C_6  and  O_20
REMARK    3  A    between atoms: C_10  and  O_22
REMARK    4  A    between atoms: C_11  and  N_18
REMARK    5  A    between atoms: C_14  and  N_21
REMARK    6  A    between atoms: N_18  and  C_23
REMARK                            x       y       z     vdW  Elec       q    Type
REMARK                         _______ _______ _______ _____ _____    ______ ____
ROOT
ATOM      1  C   UNL     1       0.303  -0.091   0.000  0.00  0.00    -0.000 A 
ATOM      2  C   UNL     1      -0.326  -0.880   0.000  0.00  0.00    +0.001 A 
ATOM      3  C   UNL     1      -0.101  -1.865   0.000  0.00  0.00    +0.018 A 
ATOM      4  C   UNL     1       0.786  -2.268   0.000  0.00  0.00    +0.084 A 
ATOM      5  C   UNL     1       1.724  -1.851   0.000  0.00  0.00    +0.208 A 
ATOM      6  O   UNL     1       2.512  -2.470   0.000  0.00  0.00    -0.285 OA
ATOM      7  C   UNL     1       1.968  -0.880   0.000  0.00  0.00    +0.040 A 
ATOM      8  C   UNL     1      -0.284   0.739   0.000  0.00  0.00    +0.033 A 
ATOM      9  C   UNL     1      -0.045   1.710   0.000  0.00  0.00    -0.016 A 
ATOM     10  C   UNL     1       0.828   2.146   0.000  0.00  0.00    +0.028 C 
ATOM     11  C   UNL     1       1.743   1.715   0.000  0.00  0.00    +0.019 C 
ATOM     12  C   UNL     1       1.991   0.739   0.000  0.00  0.00    +0.094 C 
ATOM     13  C   UNL     1      -0.790   2.400   0.000  0.00  0.00    +0.036 A 
ATOM     14  C   UNL     1      -1.747   2.118   0.000  0.00  0.00    +0.175 A 
ATOM     15  C   UNL     1      -1.987   1.166   0.000  0.00  0.00    +0.206 A 
ATOM     16  C   UNL     1      -1.260   0.457   0.000  0.00  0.00    +0.175 A 
ATOM     17  C   UNL     1       1.335  -0.091   0.000  0.00  0.00    -0.010 A 
ENDROOT
BRANCH  12  18
ATOM     18  N   UNL     1       2.658  -0.073   0.000  0.00  0.00    -0.298 NA
ATOM     19  H   UNL     1       3.638   0.082   0.000  0.00  0.00    +0.123 HD
ATOM     20  C   UNL     1       3.005  -0.936   0.000  0.00  0.00    +0.086 C 
ENDBRANCH  12  18
BRANCH   4  21
ATOM     21  N   UNL     1       0.767  -3.272   0.000  0.00  0.00    -0.330 N 
ATOM     22  H   UNL     1      -0.091  -3.765   0.000  0.00  0.00    +0.147 HD
BRANCH  21  23
ATOM     23  C   UNL     1       1.616  -3.765   0.000  0.00  0.00    +0.087 C 
ATOM     24  C   UNL     1       2.475  -3.282   0.000  0.00  0.00    +0.023 C 
ENDBRANCH  21  23
ENDBRANCH   4  21
BRANCH  15  25
ATOM     25  O   UNL     1      -2.944   0.908   0.000  0.00  0.00    -0.465 OA
ATOM     26  C   UNL     1      -3.638   1.616   0.000  0.00  0.00    +0.253 C 
ENDBRANCH  15  25
BRANCH  14  27
ATOM     27  O   UNL     1      -2.456   2.784   0.000  0.00  0.00    -0.468 OA
ATOM     28  C   UNL     1      -2.231   3.765   0.000  0.00  0.00    +0.253 C 
ENDBRANCH  14  27
BRANCH  16  29
ATOM     29  O   UNL     1      -1.508  -0.514   0.000  0.00  0.00    -0.468 OA
ATOM     30  C   UNL     1      -2.456  -0.767   0.000  0.00  0.00    +0.253 C 
ENDBRANCH  16  29
TORSDOF 6
ENDMDL
MODEL      267
REMARK  Name = N-[3,4,5-TRIMETHOXY-13-OXO-14-(PIPERIDIN-1-YL)TRICYCLO[9.5.0.0^(2,7)]HEXADECA-1(16),2,4,6,11,14-HEXAEN-10-YL]ACETAMIDE
REMARK  5 active torsions:
REMARK  status: ('A' for Active; 'I' for Inactive)
REMARK    1  A    between atoms: C_4  and  O_22
REMARK    2  A    between atoms: C_6  and  N_13
REMARK    3  A    between atoms: C_9  and  O_23
REMARK    4  A    between atoms: C_12  and  N_15
REMARK    5  A    between atoms: C_14  and  O_24
REMARK                            x       y       z     vdW  Elec       q    Type
REMARK                         _______ _______ _______ _____ _____    ______ ____
ROOT
ATOM      1  C   UNL     1       0.146   0.640   0.000  0.00  0.00    +0.000 A 
ATOM      2  C   UNL     1      -0.497  -0.165   0.000  0.00  0.00    +0.001 A 
ATOM      3  C   UNL     1      -0.270  -1.137   0.000  0.00  0.00    +0.018 A 
ATOM      4  C   UNL     1       0.621  -1.532   0.000  0.00  0.00    +0.087 A 
ATOM      5  C   UNL     1       1.572  -1.121   0.000  0.00  0.00    +0.209 A 
ATOM      6  O   UNL     1       2.350  -1.742   0.000  0.00  0.00    -0.285 OA
ATOM      7  C   UNL     1       1.815  -0.165   0.000  0.00  0.00    +0.040 A 
ATOM      8  C   UNL     1      -0.454   1.483   0.000  0.00  0.00    +0.033 A 
ATOM      9  C   UNL     1      -0.222   2.456   0.000  0.00  0.00    -0.016 A 
ATOM     10  C   UNL     1       0.670   2.899   0.000  0.00  0.00    +0.028 C 
ATOM     11  C   UNL     1       1.594   2.456   0.000  0.00  0.00    +0.023 C 
ATOM     12  C   UNL     1       1.832   1.483   0.000  0.00  0.00    +0.113 C 
ATOM     13  C   UNL     1      -0.956   3.142   0.000  0.00  0.00    +0.036 A 
ATOM     14  C   UNL     1      -1.929   2.877   0.000  0.00  0.00    +0.175 A 
ATOM     15  C   UNL     1      -2.167   1.910   0.000  0.00  0.00    +0.206 A 
ATOM     16  C   UNL     1      -1.437   1.197   0.000  0.00  0.00    +0.175 A 
ATOM     17  C   UNL     1       1.183   0.640   0.000  0.00  0.00    -0.007 A 
ENDROOT
BRANCH   4  18
ATOM     18  N   UNL     1       0.621  -2.521   0.000  0.00  0.00    -0.305 N 
ATOM     19  C   UNL     1       1.480  -3.018   0.000  0.00  0.00    +0.091 C 
ATOM     20  C   UNL     1       1.480  -4.039   0.000  0.00  0.00    +0.021 C 
ATOM     21  C   UNL     1       0.621  -4.530   0.000  0.00  0.00    +0.004 C 
ATOM     22  C   UNL     1      -0.259  -4.039   0.000  0.00  0.00    +0.021 C 
ATOM     23  C   UNL     1      -0.259  -3.039   0.000  0.00  0.00    +0.091 C 
ENDBRANCH   4  18
BRANCH  12  24
ATOM     24  N   UNL     1       2.501   0.673   0.000  0.00  0.00    -0.307 N 
ATOM     25  H   UNL     1       3.501   0.824   0.000  0.00  0.00    +0.149 HD
ATOM     26  C   UNL     1       2.858  -0.213   0.000  0.00  0.00    +0.223 C 
ATOM     27  C   UNL     1       3.825  -0.213   0.000  0.00  0.00    +0.095 C 
ATOM     28  O   UNL     1       2.415  -0.862   0.000  0.00  0.00    -0.275 OA
ENDBRANCH  12  24
BRANCH  15  29
ATOM     29  O   UNL     1      -3.123   1.651   0.000  0.00  0.00    -0.465 OA
ATOM     30  C   UNL     1      -3.825   2.364   0.000  0.00  0.00    +0.253 C 
ENDBRANCH  15  29
BRANCH  14  31
ATOM     31  O   UNL     1      -2.642   3.547   0.000  0.00  0.00    -0.468 OA
ATOM     32  C   UNL     1      -2.410   4.530   0.000  0.00  0.00    +0.253 C 
ENDBRANCH  14  31
BRANCH  16  33
ATOM     33  O   UNL     1      -1.686   0.224   0.000  0.00  0.00    -0.468 OA
ATOM     34  C   UNL     1      -2.642  -0.041   0.000  0.00  0.00    +0.253 C 
ENDBRANCH  16  33
TORSDOF 5
ENDMDL
MODEL      268
REMARK  Name = 11-ETHYL-6-METHOXY-13-METHYL-11-AZAHEXACYCLO[7.7.2.1^(2,5).0^(1,10).0^(3,8).0^(13,17)]NONADECANE-4,8,16-TRIOL
REMARK  2 active torsions:
REMARK  status: ('A' for Active; 'I' for Inactive)
REMARK    1  A    between atoms: N_8  and  C_22
REMARK    2  A    between atoms: C_15  and  O_23
REMARK                            x       y       z     vdW  Elec       q    Type
REMARK                         _______ _______ _______ _____ _____    ______ ____
ROOT
ATOM      1  C   UNL     1      -0.685  -1.212   0.000  0.00  0.00    +0.042 C 
ATOM      2  C   UNL     1      -1.405  -0.976   0.000  0.00  0.00    +0.153 C 
ATOM      3  O   UNL     1      -1.555  -0.256   0.000  0.00  0.00    -0.223 OA
ATOM      4  C   UNL     1      -1.958  -1.460   0.000  0.00  0.00    +0.033 C 
ATOM      5  C   UNL     1      -1.802  -2.208   0.000  0.00  0.00    +0.004 C 
ATOM      6  C   UNL     1      -1.088  -2.444   0.000  0.00  0.00    +0.015 C 
ATOM      7  C   UNL     1      -0.962  -3.158   0.000  0.00  0.00    +0.001 C 
ATOM      8  C   UNL     1      -1.722  -3.009   0.000  0.00  0.00    +0.072 C 
ATOM      9  N   UNL     1      -1.417  -1.558   0.000  0.00  0.00    -0.274 NA
ATOM     10  C   UNL     1      -0.535  -1.932   0.000  0.00  0.00    +0.005 C 
ATOM     11  C   UNL     1       0.133  -2.248   0.000  0.00  0.00    +0.004 C 
ATOM     12  C   UNL     1       0.824  -1.961   0.000  0.00  0.00    +0.043 C 
ATOM     13  C   UNL     1       0.985  -1.252   0.000  0.00  0.00    +0.132 C 
ATOM     14  O   UNL     1       1.693  -1.252   0.000  0.00  0.00    -0.225 OA
ATOM     15  C   UNL     1       2.770   0.251   0.000  0.00  0.00    +0.060 C 
ATOM     16  C   UNL     1       0.046   1.563   0.000  0.00  0.00    +0.120 C 
ATOM     17  C   UNL     1       0.046   0.504   0.000  0.00  0.00    +0.058 C 
ATOM     18  C   UNL     1       0.824  -0.009   0.000  0.00  0.00    +0.157 C 
ATOM     19  O   UNL     1       1.624  -0.009   0.000  0.00  0.00    -0.223 OA
ATOM     20  C   UNL     1      -0.489   0.003   0.000  0.00  0.00    +0.005 C 
ATOM     21  C   UNL     1       0.547  -0.630   0.000  0.00  0.00    +0.059 C 
ATOM     22  C   UNL     1      -0.230  -0.630   0.000  0.00  0.00    +0.009 C 
ATOM     23  C   UNL     1      -0.685  -0.423   0.000  0.00  0.00    +0.062 C 
ENDROOT
BRANCH   9  24
ATOM     24  C   UNL     1      -2.493  -1.794   0.000  0.00  0.00    +0.072 C 
ATOM     25  C   UNL     1      -2.770  -2.692   0.000  0.00  0.00    +0.019 C 
ENDBRANCH   9  24
BRANCH  16  26
ATOM     26  O   UNL     1      -0.674   2.214   0.000  0.00  0.00    -0.353 OA
ATOM     27  C   UNL     1      -0.489   3.158   0.000  0.00  0.00    +0.174 C 
ENDBRANCH  16  26
TORSDOF 2
ENDMDL
MODEL      269
REMARK  Name = 11-ETHYL-6,16-DIMETHOXY-13-(METHOXYMETHYL)-11-AZAHEXACYCLO[7.7.2.1^(2,5).0^(1,10).0^(3,8).0^(13,17)]NONADECANE-4,8-DIOL
REMARK  5 active torsions:
REMARK  status: ('A' for Active; 'I' for Inactive)
REMARK    1  A    between atoms: N_8  and  C_22
REMARK    2  A    between atoms: C_9  and  C_23
REMARK    3  A    between atoms: C_16  and  O_24
REMARK    4  A    between atoms: C_17  and  O_25
REMARK    5  A    between atoms: C_23  and  O_26
REMARK                            x       y       z     vdW  Elec       q    Type
REMARK                         _______ _______ _______ _____ _____    ______ ____
ROOT
ATOM      1  C   UNL     1      -0.925   0.739   0.000  0.00  0.00    +0.039 C 
ATOM      2  C   UNL     1      -1.681   1.185   0.000  0.00  0.00    +0.116 C 
ATOM      3  C   UNL     1      -2.438   0.739   0.000  0.00  0.00    +0.030 C 
ATOM      4  C   UNL     1      -2.438  -0.141   0.000  0.00  0.00    +0.006 C 
ATOM      5  C   UNL     1      -1.681  -0.571   0.000  0.00  0.00    +0.042 C 
ATOM      6  C   UNL     1      -2.448  -1.011   0.000  0.00  0.00    +0.074 C 
ATOM      7  N   UNL     1      -1.840   0.235   0.000  0.00  0.00    -0.274 NA
ATOM      8  C   UNL     1      -0.925  -0.136   0.000  0.00  0.00    +0.007 C 
ATOM      9  C   UNL     1      -0.401  -0.655   0.000  0.00  0.00    +0.004 C 
ATOM     10  C   UNL     1       0.440  -0.512   0.000  0.00  0.00    +0.043 C 
ATOM     11  C   UNL     1       0.856   0.275   0.000  0.00  0.00    +0.132 C 
ATOM     12  O   UNL     1       1.291  -0.482   0.000  0.00  0.00    -0.225 OA
ATOM     13  C   UNL     1       1.661   1.046   0.000  0.00  0.00    +0.060 C 
ATOM     14  C   UNL     1       1.661   2.203   0.000  0.00  0.00    +0.120 C 
ATOM     15  C   UNL     1       0.292   2.485   0.000  0.00  0.00    +0.058 C 
ATOM     16  C   UNL     1       0.885   1.862   0.000  0.00  0.00    +0.157 C 
ATOM     17  O   UNL     1       2.265   1.417   0.000  0.00  0.00    -0.223 OA
ATOM     18  C   UNL     1      -0.490   2.114   0.000  0.00  0.00    +0.005 C 
ATOM     19  C   UNL     1       0.475   1.110   0.000  0.00  0.00    +0.059 C 
ATOM     20  C   UNL     1      -0.371   1.268   0.000  0.00  0.00    +0.009 C 
ATOM     21  C   UNL     1      -0.935   1.625   0.000  0.00  0.00    +0.062 C 
ENDROOT
BRANCH   2  22
ATOM     22  O   UNL     1      -1.692   2.070   0.000  0.00  0.00    -0.354 OA
ATOM     23  C   UNL     1      -2.463   2.499   0.000  0.00  0.00    +0.174 C 
ENDBRANCH   2  22
BRANCH   7  24
ATOM     24  C   UNL     1      -2.720   0.245   0.000  0.00  0.00    +0.072 C 
ATOM     25  C   UNL     1      -3.160   1.006   0.000  0.00  0.00    +0.019 C 
ENDBRANCH   7  24
BRANCH  14  26
ATOM     26  O   UNL     1       2.344   2.767   0.000  0.00  0.00    -0.353 OA
ATOM     27  C   UNL     1       3.160   2.455   0.000  0.00  0.00    +0.174 C 
ENDBRANCH  14  26
BRANCH   5  28
ATOM     28  C   UNL     1      -1.692  -1.456   0.000  0.00  0.00    +0.143 C 
BRANCH  28  29
ATOM     29  O   UNL     1      -2.463  -1.887   0.000  0.00  0.00    -0.351 OA
ATOM     30  C   UNL     1      -2.463  -2.767   0.000  0.00  0.00    +0.174 C 
ENDBRANCH  28  29
ENDBRANCH   5  28
TORSDOF 5
ENDMDL
MODEL      270
REMARK  Name = 2-(3,4-dihydroxyphenyl)-5,7-dihydroxy-3-[(3,4,5-trihydroxy-6-{[(3,4,5-trihydroxyoxan-2-yl)oxy]methyl}oxan-2-yl)oxy]-4H-chromen-4-one
REMARK  6 active torsions:
REMARK  status: ('A' for Active; 'I' for Inactive)
REMARK    1  A    between atoms: C_1  and  O_9
REMARK    2  A    between atoms: C_2  and  C_17
REMARK    3  A    between atoms: C_5  and  O_9
REMARK    4  A    between atoms: C_15  and  C_28
REMARK    5  A    between atoms: C_18  and  O_26
REMARK    6  A    between atoms: O_26  and  C_28
REMARK                            x       y       z     vdW  Elec       q    Type
REMARK                         _______ _______ _______ _____ _____    ______ ____
ROOT
ATOM      1  C   UNL     1       0.419   0.934   0.000  0.00  0.00    +0.214 A 
ATOM      2  C   UNL     1      -0.437   0.454   0.000  0.00  0.00    +0.238 A 
ATOM      3  O   UNL     1      -0.437  -0.533   0.000  0.00  0.00    -0.283 OA
ATOM      4  C   UNL     1      -1.297   0.934   0.000  0.00  0.00    +0.116 A 
ATOM      5  C   UNL     1      -2.157   0.454   0.000  0.00  0.00    +0.205 A 
ATOM      6  O   UNL     1      -2.157  -0.555   0.000  0.00  0.00    -0.286 OA
ATOM      7  C   UNL     1      -3.018   0.934   0.000  0.00  0.00    +0.084 A 
ATOM      8  C   UNL     1      -3.018   1.943   0.000  0.00  0.00    +0.202 A 
ATOM      9  C   UNL     1      -2.157   2.446   0.000  0.00  0.00    +0.080 A 
ATOM     10  O   UNL     1      -3.878   2.446   0.000  0.00  0.00    -0.286 OA
ATOM     11  C   UNL     1      -1.297   1.943   0.000  0.00  0.00    +0.155 A 
ATOM     12  O   UNL     1      -0.437   2.446   0.000  0.00  0.00    -0.450 OA
ATOM     13  C   UNL     1       0.419   1.943   0.000  0.00  0.00    +0.182 A 
ENDROOT
BRANCH  13  14
ATOM     14  C   UNL     1       1.280   2.446   0.000  0.00  0.00    +0.041 A 
ATOM     15  C   UNL     1       2.162   1.943   0.000  0.00  0.00    +0.007 A 
ATOM     16  C   UNL     1       3.022   2.446   0.000  0.00  0.00    +0.045 A 
ATOM     17  C   UNL     1       3.022   3.424   0.000  0.00  0.00    +0.234 A 
ATOM     18  C   UNL     1       2.162   3.931   0.000  0.00  0.00    +0.234 A 
ATOM     19  O   UNL     1       2.162   4.913   0.000  0.00  0.00    -0.283 OA
ATOM     20  O   UNL     1       3.878   3.931   0.000  0.00  0.00    -0.283 OA
ATOM     21  C   UNL     1       1.280   3.424   0.000  0.00  0.00    +0.049 A 
ENDBRANCH  13  14
BRANCH   1  22
ATOM     22  O   UNL     1       1.363   0.402   0.000  0.00  0.00    -0.453 OA
BRANCH  22  23
ATOM     23  C   UNL     1       1.363  -0.345   0.000  0.00  0.00    +0.343 C 
ATOM     24  O   UNL     1       0.537  -1.463   0.000  0.00  0.00    -0.330 OA
ATOM     25  C   UNL     1       1.363  -2.546   0.000  0.00  0.00    +0.195 C 
ATOM     26  C   UNL     1       3.009  -2.546   0.000  0.00  0.00    +0.223 C 
ATOM     27  C   UNL     1       3.861  -1.463   0.000  0.00  0.00    +0.229 C 
ATOM     28  O   UNL     1       3.861  -0.690   0.000  0.00  0.00    -0.225 OA
ATOM     29  O   UNL     1       3.009  -1.725   0.000  0.00  0.00    -0.225 OA
ATOM     30  C   UNL     1       3.009  -0.345   0.000  0.00  0.00    +0.259 C 
ATOM     31  O   UNL     1       3.000  -1.057   0.000  0.00  0.00    -0.222 OA
BRANCH  25  32
ATOM     32  C   UNL     1       1.363  -1.843   0.000  0.00  0.00    +0.170 C 
BRANCH  32  33
ATOM     33  O   UNL     1       0.402  -2.367   0.000  0.00  0.00    -0.333 OA
BRANCH  33  34
ATOM     34  C   UNL     1       0.402  -3.153   0.000  0.00  0.00    +0.286 C 
ATOM     35  O   UNL     1      -0.458  -2.022   0.000  0.00  0.00    -0.346 OA
ATOM     36  C   UNL     1      -2.127  -2.022   0.000  0.00  0.00    +0.200 C 
ATOM     37  C   UNL     1      -2.965  -3.153   0.000  0.00  0.00    +0.217 C 
ATOM     38  C   UNL     1      -2.127  -4.240   0.000  0.00  0.00    +0.227 C 
ATOM     39  O   UNL     1      -2.127  -3.542   0.000  0.00  0.00    -0.225 OA
ATOM     40  O   UNL     1      -2.965  -3.896   0.000  0.00  0.00    -0.226 OA
ATOM     41  C   UNL     1      -0.458  -4.240   0.000  0.00  0.00    +0.246 C 
ATOM     42  O   UNL     1      -0.458  -4.913   0.000  0.00  0.00    -0.223 OA
ENDBRANCH  33  34
ENDBRANCH  32  33
ENDBRANCH  25  32
ENDBRANCH  22  23
ENDBRANCH   1  22
TORSDOF 6
ENDMDL
MODEL      271
REMARK  Name = 1,9a,11a-trimethyl-1H,2H,3H,3aH,3bH,4H,6H,7H,8H,9H,9aH,9bH,10H,11H,11aH-cyclopenta[a]phenanthrene-1,7-diol
REMARK  0 active torsions:
REMARK  status: ('A' for Active; 'I' for Inactive)
REMARK                            x       y       z     vdW  Elec       q    Type
REMARK                         _______ _______ _______ _____ _____    ______ ____
ROOT
ATOM      1  C   UNL     1      -1.024  -0.621   0.000  0.00  0.00    +0.015 C 
ATOM      2  C   UNL     1      -1.024   0.253   0.000  0.00  0.00    +0.004 C 
ATOM      3  C   UNL     1      -1.898  -0.116   0.000  0.00  0.00    +0.006 C 
ATOM      4  C   UNL     1      -2.756  -0.621   0.000  0.00  0.00    +0.034 C 
ATOM      5  C   UNL     1      -2.756  -1.632   0.000  0.00  0.00    +0.156 C 
ATOM      6  C   UNL     1      -1.898  -2.138   0.000  0.00  0.00    +0.055 C 
ATOM      7  O   UNL     1      -3.614  -2.138   0.000  0.00  0.00    -0.223 OA
ATOM      8  C   UNL     1      -0.166  -0.116   0.000  0.00  0.00    +0.004 C 
ATOM      9  C   UNL     1      -0.166   0.911   0.000  0.00  0.00    +0.000 C 
ATOM     10  C   UNL     1       0.719   1.390   0.000  0.00  0.00    +0.002 C 
ATOM     11  C   UNL     1       1.593   0.911   0.000  0.00  0.00    +0.026 C 
ATOM     12  C   UNL     1       1.593  -0.126   0.000  0.00  0.00    +0.003 C 
ATOM     13  C   UNL     1       2.551  -0.416   0.000  0.00  0.00    +0.003 C 
ATOM     14  C   UNL     1       3.119   0.416   0.000  0.00  0.00    +0.030 C 
ATOM     15  C   UNL     1       1.593   1.859   0.000  0.00  0.00    +0.002 C 
ATOM     16  C   UNL     1       2.525   1.190   0.000  0.00  0.00    +0.127 C 
ATOM     17  C   UNL     1       3.614   1.190   0.000  0.00  0.00    +0.033 C 
ATOM     18  O   UNL     1       2.814   2.138   0.000  0.00  0.00    -0.226 OA
ATOM     19  C   UNL     1       0.719  -0.621   0.000  0.00  0.00    +0.005 C 
ATOM     20  C   UNL     1       0.719  -1.632   0.000  0.00  0.00    +0.025 C 
ATOM     21  C   UNL     1      -0.166  -2.138   0.000  0.00  0.00    -0.035 C 
ATOM     22  C   UNL     1      -1.024  -1.632   0.000  0.00  0.00    -0.047 C 
ENDROOT
TORSDOF 0
ENDMDL
MODEL      272
REMARK  Name = 1-hydroxy-1,9a,11a-trimethyl-hexadecahydro-1H-cyclopenta[a]phenanthren-7-one
REMARK  0 active torsions:
REMARK  status: ('A' for Active; 'I' for Inactive)
REMARK                            x       y       z     vdW  Elec       q    Type
REMARK                         _______ _______ _______ _____ _____    ______ ____
ROOT
ATOM      1  C   UNL     1       1.624   1.141   0.000  0.00  0.00    +0.026 C 
ATOM      2  C   UNL     1       1.624   2.092   0.000  0.00  0.00    +0.002 C 
ATOM      3  C   UNL     1       0.748   1.622   0.000  0.00  0.00    +0.002 C 
ATOM      4  C   UNL     1      -0.140   1.141   0.000  0.00  0.00    +0.000 C 
ATOM      5  C   UNL     1      -0.140   0.111   0.000  0.00  0.00    -0.000 C 
ATOM      6  C   UNL     1       0.748  -0.396   0.000  0.00  0.00    +0.000 C 
ATOM      7  C   UNL     1       0.748  -1.411   0.000  0.00  0.00    -0.000 C 
ATOM      8  C   UNL     1      -0.140  -1.917   0.000  0.00  0.00    -0.004 C 
ATOM      9  C   UNL     1      -1.001  -1.411   0.000  0.00  0.00    +0.020 C 
ATOM     10  C   UNL     1      -1.878  -1.917   0.000  0.00  0.00    +0.061 C 
ATOM     11  C   UNL     1      -2.739  -1.411   0.000  0.00  0.00    +0.150 C 
ATOM     12  O   UNL     1      -3.600  -1.917   0.000  0.00  0.00    -0.296 OA
ATOM     13  C   UNL     1      -2.739  -0.396   0.000  0.00  0.00    +0.064 C 
ATOM     14  C   UNL     1      -1.878   0.111   0.000  0.00  0.00    +0.007 C 
ATOM     15  C   UNL     1      -1.001  -0.396   0.000  0.00  0.00    -0.003 C 
ATOM     16  C   UNL     1      -1.001   0.481   0.000  0.00  0.00    -0.000 C 
ATOM     17  C   UNL     1       2.559   1.421   0.000  0.00  0.00    +0.127 C 
ATOM     18  C   UNL     1       3.600   1.548   0.000  0.00  0.00    +0.033 C 
ATOM     19  O   UNL     1       2.850   2.372   0.000  0.00  0.00    -0.226 OA
ATOM     20  C   UNL     1       3.156   0.644   0.000  0.00  0.00    +0.030 C 
ATOM     21  C   UNL     1       2.586  -0.190   0.000  0.00  0.00    +0.003 C 
ATOM     22  C   UNL     1       1.624   0.100   0.000  0.00  0.00    +0.002 C 
ENDROOT
TORSDOF 0
ENDMDL
MODEL      273
REMARK  Name = 1-{1,7-dihydroxy-2,9a,11a-trimethyl-1H,2H,3H,3aH,3bH,4H,6H,7H,8H,9H,9aH,9bH,10H,11H,11aH-cyclopenta[a]phenanthren-1-yl}ethan-1-one
REMARK  1 active torsions:
REMARK  status: ('A' for Active; 'I' for Inactive)
REMARK    1  A    between atoms: C_3  and  C_15
REMARK                            x       y       z     vdW  Elec       q    Type
REMARK                         _______ _______ _______ _____ _____    ______ ____
ROOT
ATOM      1  C   UNL     1       1.327   0.539   0.000  0.00  0.00    +0.032 C 
ATOM      2  C   UNL     1       1.327   1.478   0.000  0.00  0.00    +0.003 C 
ATOM      3  C   UNL     1       0.461   1.014   0.000  0.00  0.00    +0.003 C 
ATOM      4  C   UNL     1      -0.414   0.539   0.000  0.00  0.00    +0.000 C 
ATOM      5  C   UNL     1      -0.414  -0.477   0.000  0.00  0.00    +0.004 C 
ATOM      6  C   UNL     1       0.461  -0.977   0.000  0.00  0.00    +0.005 C 
ATOM      7  C   UNL     1       0.461  -1.978   0.000  0.00  0.00    +0.025 C 
ATOM      8  C   UNL     1      -0.414  -2.479   0.000  0.00  0.00    -0.035 C 
ATOM      9  C   UNL     1      -1.264  -1.978   0.000  0.00  0.00    -0.047 C 
ATOM     10  C   UNL     1      -2.129  -2.479   0.000  0.00  0.00    +0.055 C 
ATOM     11  C   UNL     1      -2.979  -1.978   0.000  0.00  0.00    +0.156 C 
ATOM     12  O   UNL     1      -3.829  -2.479   0.000  0.00  0.00    -0.223 OA
ATOM     13  C   UNL     1      -2.979  -0.977   0.000  0.00  0.00    +0.034 C 
ATOM     14  C   UNL     1      -2.129  -0.477   0.000  0.00  0.00    +0.006 C 
ATOM     15  C   UNL     1      -1.264  -0.977   0.000  0.00  0.00    +0.015 C 
ATOM     16  C   UNL     1      -1.264  -0.112   0.000  0.00  0.00    +0.004 C 
ATOM     17  C   UNL     1       2.249   0.816   0.000  0.00  0.00    +0.177 C 
ATOM     18  O   UNL     1       3.500   1.327   0.000  0.00  0.00    -0.218 OA
ATOM     19  C   UNL     1       2.838   0.050   0.000  0.00  0.00    +0.035 C 
ATOM     20  C   UNL     1       2.275  -0.774   0.000  0.00  0.00    +0.003 C 
ATOM     21  C   UNL     1       3.829   0.102   0.000  0.00  0.00    +0.003 C 
ATOM     22  C   UNL     1       1.327  -0.487   0.000  0.00  0.00    +0.003 C 
ENDROOT
BRANCH  17  23
ATOM     23  C   UNL     1       2.536   1.754   0.000  0.00  0.00    +0.178 C 
ATOM     24  C   UNL     1       1.848   2.479   0.000  0.00  0.00    +0.075 C 
ATOM     25  O   UNL     1       3.500   1.952   0.000  0.00  0.00    -0.293 OA
ENDBRANCH  17  23
TORSDOF 1
ENDMDL
MODEL      274
REMARK  Name = (3R,4aS,5R,8aS,9R,9aS,12R,15aR,15bS,16aS,16bR)-9,12,16b-trimethyldocosahydrobenzo[4,5]indeno[1,2-h]pyrido[1,2-b]isoquinoline-3,5,6b(7H)-triol
REMARK  0 active torsions:
REMARK  status: ('A' for Active; 'I' for Inactive)
REMARK                            x       y       z     vdW  Elec       q    Type
REMARK                         _______ _______ _______ _____ _____    ______ ____
ROOT
ATOM      1  C   UNL     1       1.231  -1.479   0.000  0.00  0.00    +0.123 C 
ATOM      2  O   UNL     1       1.562  -2.351   0.000  0.00  0.00    -0.226 OA
ATOM      3  C   UNL     1       2.382  -1.462   0.000  0.00  0.00    +0.030 C 
ATOM      4  C   UNL     1       2.832  -0.727   0.000  0.00  0.00    -0.002 C 
ATOM      5  C   UNL     1       2.450   0.288   0.000  0.00  0.00    +0.011 C 
ATOM      6  C   UNL     1       1.408   0.288   0.000  0.00  0.00    +0.024 C 
ATOM      7  C   UNL     1       0.957   1.188   0.000  0.00  0.00    +0.067 C 
ATOM      8  N   UNL     1       1.533   2.037   0.000  0.00  0.00    -0.279 NA
ATOM      9  C   UNL     1       2.547   2.049   0.000  0.00  0.00    +0.074 C 
ATOM     10  C   UNL     1       3.094   2.938   0.000  0.00  0.00    +0.011 C 
ATOM     11  C   UNL     1       2.656   3.787   0.000  0.00  0.00    +0.002 C 
ATOM     12  C   UNL     1       1.681   3.787   0.000  0.00  0.00    +0.016 C 
ATOM     13  C   UNL     1       1.271   4.704   0.000  0.00  0.00    +0.001 C 
ATOM     14  C   UNL     1       1.094   2.955   0.000  0.00  0.00    +0.072 C 
ATOM     15  C   UNL     1       2.958   1.040   0.000  0.00  0.00    +0.006 C 
ATOM     16  C   UNL     1       3.938   1.040   0.000  0.00  0.00    +0.001 C 
ATOM     17  C   UNL     1       0.467  -2.174   0.000  0.00  0.00    +0.027 C 
ATOM     18  C   UNL     1       0.467  -3.171   0.000  0.00  0.00    +0.035 C 
ATOM     19  C   UNL     1      -0.422  -3.696   0.000  0.00  0.00    +0.148 C 
ATOM     20  O   UNL     1      -0.422  -4.704   0.000  0.00  0.00    -0.223 OA
ATOM     21  C   UNL     1      -1.311  -3.217   0.000  0.00  0.00    +0.046 C 
ATOM     22  C   UNL     1      -1.311  -2.191   0.000  0.00  0.00    -0.004 C 
ATOM     23  C   UNL     1      -1.311  -1.342   0.000  0.00  0.00    -0.001 C 
ATOM     24  C   UNL     1      -2.200  -1.696   0.000  0.00  0.00    +0.002 C 
ATOM     25  C   UNL     1      -3.089  -2.191   0.000  0.00  0.00    +0.033 C 
ATOM     26  C   UNL     1      -3.089  -3.217   0.000  0.00  0.00    +0.152 C 
ATOM     27  O   UNL     1      -3.938  -3.707   0.000  0.00  0.00    -0.223 OA
ATOM     28  C   UNL     1      -2.171  -3.719   0.000  0.00  0.00    +0.031 C 
ATOM     29  C   UNL     1      -0.439  -1.724   0.000  0.00  0.00    +0.015 C 
ATOM     30  C   UNL     1      -0.205  -0.641   0.000  0.00  0.00    -0.006 C 
ATOM     31  C   UNL     1       0.809  -0.561   0.000  0.00  0.00    +0.038 C 
ENDROOT
TORSDOF 0
ENDMDL
MODEL      275
REMARK  Name = 2-{[4-HYDROXY-6-(HYDROXYMETHYL)-2-{5,7',9',13'-TETRAMETHYL-5'-OXASPIRO[OXANE-2,6'-PENTACYCLO[10.8.0.0^(2,9).0^(4,8).0^(13,18)]ICOSANE]OXY}-5-[(3,4,5-TRIHYDROXY-6-METHYLOXAN-2-YL)OXY]OXAN-3-YL]OXY}-6-M ETHYLOXANE-3,4,5-TRIOL
REMARK  7 active torsions:
REMARK  status: ('A' for Active; 'I' for Inactive)
REMARK    1  A    between atoms: C_2  and  O_18
REMARK    2  A    between atoms: C_5  and  O_18
REMARK    3  A    between atoms: C_6  and  O_22
REMARK    4  A    between atoms: C_7  and  O_36
REMARK    5  A    between atoms: C_8  and  O_22
REMARK    6  A    between atoms: C_27  and  C_55
REMARK    7  A    between atoms: O_36  and  C_42
REMARK                            x       y       z     vdW  Elec       q    Type
REMARK                         _______ _______ _______ _____ _____    ______ ____
ROOT
ATOM      1  C   UNL     1      -1.368  -0.464   0.000  0.00  0.00    +0.283 C 
ATOM      2  O   UNL     1      -2.092   0.484   0.000  0.00  0.00    -0.340 OA
ATOM      3  C   UNL     1      -3.485   0.484   0.000  0.00  0.00    +0.194 C 
ATOM      4  C   UNL     1      -4.188  -0.464   0.000  0.00  0.00    +0.188 C 
ATOM      5  C   UNL     1      -3.485  -1.386   0.000  0.00  0.00    +0.221 C 
ATOM      6  O   UNL     1      -3.450  -0.662   0.000  0.00  0.00    -0.225 OA
ATOM      7  C   UNL     1      -2.092  -1.386   0.000  0.00  0.00    +0.212 C 
ENDROOT
BRANCH   3   8
ATOM      8  C   UNL     1      -3.485   1.071   0.000  0.00  0.00    +0.207 C 
ATOM      9  O   UNL     1      -2.536   1.549   0.000  0.00  0.00    -0.218 OA
ENDBRANCH   3   8
BRANCH   1  10
ATOM     10  O   UNL     1      -1.437   0.498   0.000  0.00  0.00    -0.338 OA
BRANCH  10  21
ATOM     11  C   UNL     1       3.675   3.385   0.000  0.00  0.00    +0.002 C 
ATOM     12  C   UNL     1       3.662   4.396   0.000  0.00  0.00    +0.000 C 
ATOM     13  C   UNL     1       2.843   3.856   0.000  0.00  0.00    +0.000 C 
ATOM     14  C   UNL     1       2.003   3.385   0.000  0.00  0.00    -0.000 C 
ATOM     15  C   UNL     1       2.003   2.416   0.000  0.00  0.00    -0.000 C 
ATOM     16  C   UNL     1       2.843   1.938   0.000  0.00  0.00    +0.000 C 
ATOM     17  C   UNL     1       2.843   0.990   0.000  0.00  0.00    -0.000 C 
ATOM     18  C   UNL     1       2.003   0.519   0.000  0.00  0.00    -0.004 C 
ATOM     19  C   UNL     1       1.171   0.990   0.000  0.00  0.00    +0.015 C 
ATOM     20  C   UNL     1       0.318   0.519   0.000  0.00  0.00    +0.026 C 
ATOM     21  C   UNL     1      -0.515   0.990   0.000  0.00  0.00    +0.117 C 
ATOM     22  C   UNL     1      -0.515   1.938   0.000  0.00  0.00    +0.030 C 
ATOM     23  C   UNL     1       0.318   2.416   0.000  0.00  0.00    +0.002 C 
ATOM     24  C   UNL     1       1.171   1.938   0.000  0.00  0.00    -0.003 C 
ATOM     25  C   UNL     1       1.171   2.955   0.000  0.00  0.00    -0.000 C 
ATOM     26  C   UNL     1       4.508   3.856   0.000  0.00  0.00    +0.032 C 
ATOM     27  C   UNL     1       4.481   4.593   0.000  0.00  0.00    +0.054 C 
ATOM     28  C   UNL     1       3.525   5.201   0.000  0.00  0.00    +0.005 C 
ATOM     29  C   UNL     1       6.016   4.709   0.000  0.00  0.00    +0.187 C 
ATOM     30  O   UNL     1       6.064   3.938   0.000  0.00  0.00    -0.337 OA
ATOM     31  C   UNL     1       7.034   5.085   0.000  0.00  0.00    +0.056 C 
ATOM     32  C   UNL     1       8.166   4.675   0.000  0.00  0.00    +0.007 C 
ATOM     33  C   UNL     1       9.115   5.412   0.000  0.00  0.00    +0.030 C 
ATOM     34  C   UNL     1       8.085   5.249   0.000  0.00  0.00    +0.145 C 
ATOM     35  C   UNL     1       9.081   6.382   0.000  0.00  0.00    +0.003 C 
ATOM     36  O   UNL     1       6.918   5.788   0.000  0.00  0.00    -0.334 OA
ATOM     37  C   UNL     1       5.348   3.385   0.000  0.00  0.00    +0.118 C 
ATOM     38  C   UNL     1       5.348   2.416   0.000  0.00  0.00    +0.030 C 
ATOM     39  C   UNL     1       3.675   2.416   0.000  0.00  0.00    +0.002 C 
ENDBRANCH  10  21
ENDBRANCH   1  10
BRANCH   4  40
ATOM     40  O   UNL     1      -4.188  -1.092   0.000  0.00  0.00    -0.340 OA
BRANCH  40  41
ATOM     41  C   UNL     1      -6.262  -3.809   0.000  0.00  0.00    +0.286 C 
ATOM     42  O   UNL     1      -6.986  -2.860   0.000  0.00  0.00    -0.342 OA
ATOM     43  C   UNL     1      -8.371  -2.860   0.000  0.00  0.00    +0.164 C 
ATOM     44  C   UNL     1      -8.426  -3.495   0.000  0.00  0.00    +0.028 C 
ATOM     45  C   UNL     1      -9.081  -3.809   0.000  0.00  0.00    +0.220 C 
ATOM     46  C   UNL     1      -8.371  -4.723   0.000  0.00  0.00    +0.227 C 
ATOM     47  O   UNL     1      -8.392  -5.331   0.000  0.00  0.00    -0.225 OA
ATOM     48  O   UNL     1      -9.115  -3.024   0.000  0.00  0.00    -0.226 OA
ATOM     49  C   UNL     1      -6.986  -4.723   0.000  0.00  0.00    +0.246 C 
ATOM     50  O   UNL     1      -6.986  -5.283   0.000  0.00  0.00    -0.223 OA
ENDBRANCH  40  41
ENDBRANCH   4  40
BRANCH   7  51
ATOM     51  O   UNL     1      -2.092  -1.938   0.000  0.00  0.00    -0.338 OA
BRANCH  51  52
ATOM     52  C   UNL     1      -2.058  -4.908   0.000  0.00  0.00    +0.286 C 
ATOM     53  O   UNL     1      -2.781  -3.959   0.000  0.00  0.00    -0.342 OA
ATOM     54  C   UNL     1      -4.173  -3.959   0.000  0.00  0.00    +0.164 C 
ATOM     55  C   UNL     1      -4.173  -4.532   0.000  0.00  0.00    +0.028 C 
ATOM     56  C   UNL     1      -4.877  -4.908   0.000  0.00  0.00    +0.220 C 
ATOM     57  C   UNL     1      -4.173  -5.822   0.000  0.00  0.00    +0.227 C 
ATOM     58  O   UNL     1      -4.173  -6.382   0.000  0.00  0.00    -0.225 OA
ATOM     59  O   UNL     1      -4.877  -4.205   0.000  0.00  0.00    -0.226 OA
ATOM     60  C   UNL     1      -2.781  -5.822   0.000  0.00  0.00    +0.246 C 
ATOM     61  O   UNL     1      -2.781  -6.382   0.000  0.00  0.00    -0.223 OA
ENDBRANCH  51  52
ENDBRANCH   7  51
TORSDOF 7
ENDMDL
MODEL      276
REMARK  Name = 5,7',9',13'-TETRAMETHYL-5'-OXASPIRO[OXANE-2,6'-PENTACYCLO[10.8.0.0^(2,9).0^(4,8).0^(13,18)]ICOSANE]-16',19'-DIOL
REMARK  0 active torsions:
REMARK  status: ('A' for Active; 'I' for Inactive)
REMARK                            x       y       z     vdW  Elec       q    Type
REMARK                         _______ _______ _______ _____ _____    ______ ____
ROOT
ATOM      1  C   UNL     1      -0.672   0.805   0.000  0.00  0.00    +0.002 C 
ATOM      2  C   UNL     1      -0.646   1.887   0.000  0.00  0.00    +0.000 C 
ATOM      3  C   UNL     1      -1.456   1.272   0.000  0.00  0.00    +0.000 C 
ATOM      4  C   UNL     1      -2.256   0.805   0.000  0.00  0.00    +0.000 C 
ATOM      5  C   UNL     1      -2.256  -0.118   0.000  0.00  0.00    +0.000 C 
ATOM      6  C   UNL     1      -1.456  -0.600   0.000  0.00  0.00    +0.003 C 
ATOM      7  C   UNL     1      -1.456  -1.508   0.000  0.00  0.00    +0.033 C 
ATOM      8  C   UNL     1      -2.256  -1.979   0.000  0.00  0.00    +0.152 C 
ATOM      9  C   UNL     1      -3.071  -1.508   0.000  0.00  0.00    +0.033 C 
ATOM     10  C   UNL     1      -3.907  -1.979   0.000  0.00  0.00    +0.035 C 
ATOM     11  C   UNL     1      -4.646  -1.508   0.000  0.00  0.00    +0.152 C 
ATOM     12  O   UNL     1      -5.456  -2.000   0.000  0.00  0.00    -0.223 OA
ATOM     13  C   UNL     1      -4.646  -0.600   0.000  0.00  0.00    +0.033 C 
ATOM     14  C   UNL     1      -3.907  -0.118   0.000  0.00  0.00    +0.003 C 
ATOM     15  O   UNL     1      -2.236  -3.169   0.000  0.00  0.00    -0.223 OA
ATOM     16  C   UNL     1      -3.071  -0.600   0.000  0.00  0.00    +0.003 C 
ATOM     17  C   UNL     1      -3.097   0.533   0.000  0.00  0.00    +0.000 C 
ATOM     18  C   UNL     1       0.215   1.077   0.000  0.00  0.00    +0.032 C 
ATOM     19  C   UNL     1       0.856   2.071   0.000  0.00  0.00    +0.054 C 
ATOM     20  C   UNL     1       0.549   3.169   0.000  0.00  0.00    +0.005 C 
ATOM     21  C   UNL     1       1.876   1.666   0.000  0.00  0.00    +0.187 C 
ATOM     22  O   UNL     1       1.902   0.605   0.000  0.00  0.00    -0.337 OA
ATOM     23  C   UNL     1       2.712   2.061   0.000  0.00  0.00    +0.056 C 
ATOM     24  C   UNL     1       3.871   1.651   0.000  0.00  0.00    +0.007 C 
ATOM     25  C   UNL     1       4.584   2.554   0.000  0.00  0.00    +0.030 C 
ATOM     26  C   UNL     1       3.723   2.133   0.000  0.00  0.00    +0.145 C 
ATOM     27  C   UNL     1       5.456   2.159   0.000  0.00  0.00    +0.003 C 
ATOM     28  O   UNL     1       2.579   2.554   0.000  0.00  0.00    -0.334 OA
ATOM     29  C   UNL     1       0.733   0.338   0.000  0.00  0.00    +0.118 C 
ATOM     30  C   UNL     1       0.215  -0.374   0.000  0.00  0.00    +0.030 C 
ATOM     31  C   UNL     1      -0.672  -0.118   0.000  0.00  0.00    +0.003 C 
ENDROOT
TORSDOF 0
ENDMDL
MODEL      277
REMARK  Name = ethyl 2-{[10-({6-[(2-ethoxy-2-oxoethyl)carbamoyl]-3-({6-[(2-ethoxy-2-oxoethyl)carbamoyl]-3,4,5-trihydroxyoxan-2-yl}oxy)-4,5-dihydroxyoxan-2-yl}oxy)-2,4a,6a,6b,9,9,12a-heptamethyl-13-oxo-1,2,3,4,4a,5,6 ,6a,6b,7,8,8a,9,10,11,12,12a,12b,13,14b-icosahydropicen-2-yl]formamido}acetate
REMARK  19 active torsions:
REMARK  status: ('A' for Active; 'I' for Inactive)
REMARK    1  A    between atoms: C_5  and  O_22
REMARK    2  A    between atoms: C_6  and  C_25
REMARK    3  A    between atoms: C_7  and  C_26
REMARK    4  A    between atoms: C_9  and  O_22
REMARK    5  A    between atoms: C_10  and  O_29
REMARK    6  A    between atoms: C_24  and  C_31
REMARK    7  A    between atoms: O_29  and  C_30
REMARK    8  A    between atoms: N_36  and  C_60
REMARK    9  A    between atoms: N_37  and  C_58
REMARK   10  A    between atoms: N_38  and  C_59
REMARK   11  A    between atoms: C_39  and  C_59
REMARK   12  A    between atoms: C_39  and  O_65
REMARK   13  A    between atoms: C_40  and  C_60
REMARK   14  A    between atoms: C_40  and  O_66
REMARK   15  A    between atoms: C_41  and  C_58
REMARK   16  A    between atoms: C_41  and  O_64
REMARK   17  A    between atoms: O_64  and  C_71
REMARK   18  A    between atoms: O_65  and  C_73
REMARK   19  A    between atoms: O_66  and  C_72
REMARK                            x       y       z     vdW  Elec       q    Type
REMARK                         _______ _______ _______ _____ _____    ______ ____
ROOT
ATOM      1  C   UNL     1       2.798   1.631   0.000  0.00  0.00    -0.042 C 
ATOM      2  C   UNL     1       3.765   2.294   0.000  0.00  0.00    +0.019 C 
ATOM      3  C   UNL     1       4.714   1.748   0.000  0.00  0.00    +0.003 C 
ATOM      4  C   UNL     1       5.782   1.109   0.000  0.00  0.00    +0.000 C 
ATOM      5  C   UNL     1       5.664   2.294   0.000  0.00  0.00    +0.001 C 
ATOM      6  C   UNL     1       5.664   3.387   0.000  0.00  0.00    +0.009 C 
ATOM      7  C   UNL     1       4.714   3.908   0.000  0.00  0.00    +0.071 C 
ATOM      8  C   UNL     1       3.765   4.513   0.000  0.00  0.00    +0.009 C 
ATOM      9  C   UNL     1       4.714   0.639   0.000  0.00  0.00    +0.001 C 
ATOM     10  C   UNL     1       3.765   0.101   0.000  0.00  0.00    +0.004 C 
ATOM     11  C   UNL     1       3.765   3.387   0.000  0.00  0.00    +0.013 C 
ATOM     12  C   UNL     1       2.050   2.092   0.000  0.00  0.00    +0.029 C 
ATOM     13  C   UNL     1       1.302   1.631   0.000  0.00  0.00    +0.172 C 
ATOM     14  O   UNL     1       0.353   2.176   0.000  0.00  0.00    -0.291 OA
ATOM     15  C   UNL     1       1.302   0.740   0.000  0.00  0.00    +0.062 C 
ATOM     16  C   UNL     1       2.050   0.319   0.000  0.00  0.00    +0.010 C 
ATOM     17  C   UNL     1       2.050   1.168   0.000  0.00  0.00    +0.001 C 
ATOM     18  C   UNL     1       2.050  -0.647   0.000  0.00  0.00    +0.001 C 
ATOM     19  C   UNL     1       1.302  -1.134   0.000  0.00  0.00    +0.000 C 
ATOM     20  C   UNL     1       0.538  -0.647   0.000  0.00  0.00    +0.003 C 
ATOM     21  C   UNL     1      -0.269  -1.134   0.000  0.00  0.00    +0.025 C 
ATOM     22  C   UNL     1      -1.034  -0.647   0.000  0.00  0.00    +0.118 C 
ATOM     23  C   UNL     1      -1.034   0.319   0.000  0.00  0.00    +0.030 C 
ATOM     24  C   UNL     1      -0.269   0.740   0.000  0.00  0.00    +0.003 C 
ATOM     25  C   UNL     1      -0.815  -2.219   0.000  0.00  0.00    +0.002 C 
ATOM     26  C   UNL     1       0.395  -2.042   0.000  0.00  0.00    +0.002 C 
ATOM     27  C   UNL     1       0.538   0.319   0.000  0.00  0.00    +0.007 C 
ATOM     28  C   UNL     1       0.538   1.227   0.000  0.00  0.00    +0.000 C 
ATOM     29  C   UNL     1       2.798   0.740   0.000  0.00  0.00    +0.016 C 
ATOM     30  C   UNL     1       2.815  -0.285   0.000  0.00  0.00    +0.004 C 
ENDROOT
BRANCH   7  31
ATOM     31  C   UNL     1       5.622   4.538   0.000  0.00  0.00    +0.241 C 
ATOM     32  O   UNL     1       5.622   5.706   0.000  0.00  0.00    -0.273 OA
ATOM     33  N   UNL     1       6.689   3.908   0.000  0.00  0.00    -0.193 NA
BRANCH  33  34
ATOM     34  C   UNL     1       7.538   4.454   0.000  0.00  0.00    +0.224 C 
BRANCH  34  35
ATOM     35  C   UNL     1       7.538   5.445   0.000  0.00  0.00    +0.339 C 
ATOM     36  O   UNL     1       6.630   5.925   0.000  0.00  0.00    -0.248 OA
BRANCH  35  37
ATOM     37  O   UNL     1       8.320   6.008   0.000  0.00  0.00    -0.447 OA
BRANCH  37  38
ATOM     38  C   UNL     1       8.244   6.992   0.000  0.00  0.00    +0.209 C 
ATOM     39  C   UNL     1       9.025   7.563   0.000  0.00  0.00    +0.051 C 
ENDBRANCH  37  38
ENDBRANCH  35  37
ENDBRANCH  34  35
ENDBRANCH  33  34
ENDBRANCH   7  31
BRANCH  22  40
ATOM     40  O   UNL     1      -1.899  -1.134   0.000  0.00  0.00    -0.331 OA
BRANCH  40  41
ATOM     41  C   UNL     1      -1.899  -2.302   0.000  0.00  0.00    +0.266 C 
ATOM     42  O   UNL     1      -2.546  -1.479   0.000  0.00  0.00    -0.319 OA
ATOM     43  C   UNL     1      -3.740  -1.479   0.000  0.00  0.00    +0.228 C 
ATOM     44  C   UNL     1      -4.387  -2.302   0.000  0.00  0.00    +0.221 C 
ATOM     45  C   UNL     1      -3.740  -3.067   0.000  0.00  0.00    +0.217 C 
ATOM     46  O   UNL     1      -3.740  -2.244   0.000  0.00  0.00    -0.217 OA
ATOM     47  O   UNL     1      -4.362  -3.227   0.000  0.00  0.00    -0.217 OA
ATOM     48  C   UNL     1      -2.546  -3.067   0.000  0.00  0.00    +0.207 C 
BRANCH  43  49
ATOM     49  C   UNL     1      -3.740  -0.975   0.000  0.00  0.00    +0.272 C 
ATOM     50  O   UNL     1      -3.135  -0.605   0.000  0.00  0.00    -0.271 OA
ATOM     51  N   UNL     1      -4.244  -0.706   0.000  0.00  0.00    -0.191 NA
BRANCH  51  52
ATOM     52  C   UNL     1      -4.244   0.261   0.000  0.00  0.00    +0.224 C 
BRANCH  52  53
ATOM     53  C   UNL     1      -5.093   0.765   0.000  0.00  0.00    +0.339 C 
ATOM     54  O   UNL     1      -5.975   0.302   0.000  0.00  0.00    -0.248 OA
BRANCH  53  55
ATOM     55  O   UNL     1      -5.093   1.773   0.000  0.00  0.00    -0.447 OA
BRANCH  55  56
ATOM     56  C   UNL     1      -5.958   2.277   0.000  0.00  0.00    +0.209 C 
ATOM     57  C   UNL     1      -5.958   3.260   0.000  0.00  0.00    +0.051 C 
ENDBRANCH  55  56
ENDBRANCH  53  55
ENDBRANCH  52  53
ENDBRANCH  51  52
ENDBRANCH  43  49
BRANCH  48  58
ATOM     58  O   UNL     1      -2.529  -4.437   0.000  0.00  0.00    -0.323 OA
BRANCH  58  59
ATOM     59  C   UNL     1      -2.529  -5.916   0.000  0.00  0.00    +0.270 C 
ATOM     60  C   UNL     1      -3.151  -6.739   0.000  0.00  0.00    +0.241 C 
ATOM     61  O   UNL     1      -3.151  -7.563   0.000  0.00  0.00    -0.215 OA
ATOM     62  C   UNL     1      -4.319  -6.739   0.000  0.00  0.00    +0.220 C 
ATOM     63  O   UNL     1      -4.319  -5.916   0.000  0.00  0.00    -0.217 OA
ATOM     64  C   UNL     1      -5.008  -5.916   0.000  0.00  0.00    +0.221 C 
ATOM     65  C   UNL     1      -4.319  -5.084   0.000  0.00  0.00    +0.228 C 
ATOM     66  O   UNL     1      -5.008  -6.958   0.000  0.00  0.00    -0.217 OA
ATOM     67  O   UNL     1      -3.151  -5.084   0.000  0.00  0.00    -0.319 OA
BRANCH  65  68
ATOM     68  C   UNL     1      -4.319  -4.563   0.000  0.00  0.00    +0.272 C 
ATOM     69  O   UNL     1      -3.698  -3.975   0.000  0.00  0.00    -0.271 OA
ATOM     70  N   UNL     1      -5.168  -4.017   0.000  0.00  0.00    -0.191 NA
BRANCH  70  71
ATOM     71  C   UNL     1      -6.034  -4.017   0.000  0.00  0.00    +0.224 C 
BRANCH  71  72
ATOM     72  C   UNL     1      -6.521  -4.882   0.000  0.00  0.00    +0.339 C 
ATOM     73  O   UNL     1      -6.034  -5.748   0.000  0.00  0.00    -0.248 OA
BRANCH  72  74
ATOM     74  O   UNL     1      -7.513  -4.840   0.000  0.00  0.00    -0.447 OA
BRANCH  74  75
ATOM     75  C   UNL     1      -8.034  -5.672   0.000  0.00  0.00    +0.209 C 
ATOM     76  C   UNL     1      -9.025  -5.647   0.000  0.00  0.00    +0.051 C 
ENDBRANCH  74  75
ENDBRANCH  72  74
ENDBRANCH  71  72
ENDBRANCH  70  71
ENDBRANCH  65  68
ENDBRANCH  58  59
ENDBRANCH  48  58
ENDBRANCH  40  41
ENDBRANCH  22  40
TORSDOF 19
ENDMDL
MODEL      278
REMARK  Name = 1-(5-ethyl-6-methylheptan-2-yl)-9a,11a-dimethyl-1H,2H,3H,3aH,3bH,4H,6H,7H,8H,9H,9aH,9bH,10H,11H,11aH-cyclopenta[a]phenanthren-7-ol
REMARK  6 active torsions:
REMARK  status: ('A' for Active; 'I' for Inactive)
REMARK    1  A    between atoms: C_7  and  C_16
REMARK    2  A    between atoms: C_16  and  C_17
REMARK    3  A    between atoms: C_17  and  C_18
REMARK    4  A    between atoms: C_18  and  C_20
REMARK    5  A    between atoms: C_20  and  C_24
REMARK    6  A    between atoms: C_20  and  C_26
REMARK                            x       y       z     vdW  Elec       q    Type
REMARK                         _______ _______ _______ _____ _____    ______ ____
ROOT
ATOM      1  C   UNL     1      -0.119   0.226   0.000  0.00  0.00    +0.000 C 
ATOM      2  C   UNL     1      -0.119   1.181   0.000  0.00  0.00    +0.000 C 
ATOM      3  C   UNL     1      -1.000   0.709   0.000  0.00  0.00    +0.000 C 
ATOM      4  C   UNL     1      -1.892   0.226   0.000  0.00  0.00    +0.000 C 
ATOM      5  C   UNL     1      -1.892  -0.809   0.000  0.00  0.00    +0.004 C 
ATOM      6  C   UNL     1      -1.000  -1.319   0.000  0.00  0.00    +0.005 C 
ATOM      7  C   UNL     1      -1.000  -2.338   0.000  0.00  0.00    +0.025 C 
ATOM      8  C   UNL     1      -1.892  -2.847   0.000  0.00  0.00    -0.035 C 
ATOM      9  C   UNL     1      -2.757  -2.338   0.000  0.00  0.00    -0.047 C 
ATOM     10  C   UNL     1      -3.638  -2.847   0.000  0.00  0.00    +0.055 C 
ATOM     11  C   UNL     1      -4.503  -2.338   0.000  0.00  0.00    +0.156 C 
ATOM     12  O   UNL     1      -5.368  -2.847   0.000  0.00  0.00    -0.223 OA
ATOM     13  C   UNL     1      -4.503  -1.319   0.000  0.00  0.00    +0.034 C 
ATOM     14  C   UNL     1      -3.638  -0.809   0.000  0.00  0.00    +0.006 C 
ATOM     15  C   UNL     1      -2.757  -1.319   0.000  0.00  0.00    +0.015 C 
ATOM     16  C   UNL     1      -2.757  -0.438   0.000  0.00  0.00    +0.004 C 
ATOM     17  C   UNL     1       0.820   0.507   0.000  0.00  0.00    +0.000 C 
ATOM     18  C   UNL     1       1.420  -0.273   0.000  0.00  0.00    +0.000 C 
ATOM     19  C   UNL     1       0.847  -1.112   0.000  0.00  0.00    +0.000 C 
ATOM     20  C   UNL     1      -0.119  -0.820   0.000  0.00  0.00    +0.000 C 
ENDROOT
BRANCH  17  21
ATOM     21  C   UNL     1       1.112   1.462   0.000  0.00  0.00    +0.000 C 
ATOM     22  C   UNL     1       0.438   2.184   0.000  0.00  0.00    +0.000 C 
BRANCH  21  23
ATOM     23  C   UNL     1       2.083   1.690   0.000  0.00  0.00    +0.000 C 
BRANCH  23  24
ATOM     24  C   UNL     1       2.757   0.963   0.000  0.00  0.00    +0.000 C 
BRANCH  24  25
ATOM     25  C   UNL     1       3.723   1.191   0.000  0.00  0.00    +0.000 C 
BRANCH  25  26
ATOM     26  C   UNL     1       4.413   0.480   0.000  0.00  0.00    +0.000 C 
ATOM     27  C   UNL     1       5.368   0.709   0.000  0.00  0.00    +0.000 C 
ATOM     28  C   UNL     1       4.147  -0.475   0.000  0.00  0.00    +0.000 C 
ENDBRANCH  25  26
BRANCH  25  29
ATOM     29  C   UNL     1       4.004   2.136   0.000  0.00  0.00    +0.000 C 
ATOM     30  C   UNL     1       3.330   2.847   0.000  0.00  0.00    +0.000 C 
ENDBRANCH  25  29
ENDBRANCH  24  25
ENDBRANCH  23  24
ENDBRANCH  21  23
ENDBRANCH  17  21
TORSDOF 6
ENDMDL
MODEL      279
REMARK  Name = 1-{7-hydroxy-9a,11a-dimethyl-3H,3aH,3bH,4H,5H,5aH,6H,7H,8H,9H,9aH,9bH,10H,11H,11aH-cyclopenta[a]phenanthren-1-yl}ethan-1-one
REMARK  1 active torsions:
REMARK  status: ('A' for Active; 'I' for Inactive)
REMARK    1  A    between atoms: C_2  and  C_14
REMARK                            x       y       z     vdW  Elec       q    Type
REMARK                         _______ _______ _______ _____ _____    ______ ____
ROOT
ATOM      1  C   UNL     1       1.514   0.770   0.000  0.00  0.00    +0.022 C 
ATOM      2  C   UNL     1       1.514   1.722   0.000  0.00  0.00    +0.004 C 
ATOM      3  C   UNL     1       0.635   1.252   0.000  0.00  0.00    +0.004 C 
ATOM      4  C   UNL     1      -0.254   0.770   0.000  0.00  0.00    +0.000 C 
ATOM      5  C   UNL     1      -0.254  -0.262   0.000  0.00  0.00    -0.000 C 
ATOM      6  C   UNL     1       0.635  -0.770   0.000  0.00  0.00    +0.001 C 
ATOM      7  C   UNL     1       0.635  -1.786   0.000  0.00  0.00    -0.000 C 
ATOM      8  C   UNL     1      -0.254  -2.294   0.000  0.00  0.00    -0.004 C 
ATOM      9  C   UNL     1      -1.117  -1.786   0.000  0.00  0.00    +0.015 C 
ATOM     10  C   UNL     1      -1.995  -2.294   0.000  0.00  0.00    +0.029 C 
ATOM     11  C   UNL     1      -2.858  -1.786   0.000  0.00  0.00    +0.152 C 
ATOM     12  O   UNL     1      -3.720  -2.294   0.000  0.00  0.00    -0.223 OA
ATOM     13  C   UNL     1      -2.858  -0.770   0.000  0.00  0.00    +0.033 C 
ATOM     14  C   UNL     1      -1.995  -0.262   0.000  0.00  0.00    +0.002 C 
ATOM     15  C   UNL     1      -1.117  -0.770   0.000  0.00  0.00    -0.003 C 
ATOM     16  C   UNL     1      -1.117   0.108   0.000  0.00  0.00    -0.000 C 
ATOM     17  C   UNL     1       1.514  -0.273   0.000  0.00  0.00    +0.008 C 
ATOM     18  C   UNL     1       2.477  -0.564   0.000  0.00  0.00    +0.026 C 
ATOM     19  C   UNL     1       3.048   0.272   0.000  0.00  0.00    -0.028 C 
ATOM     20  C   UNL     1       2.450   1.050   0.000  0.00  0.00    +0.008 C 
ENDROOT
BRANCH  20  21
ATOM     21  C   UNL     1       2.741   2.003   0.000  0.00  0.00    +0.169 C 
ATOM     22  C   UNL     1       2.043   2.739   0.000  0.00  0.00    +0.077 C 
ATOM     23  O   UNL     1       3.720   2.204   0.000  0.00  0.00    -0.292 OA
ENDBRANCH  20  21
TORSDOF 1
ENDMDL
MODEL      280
REMARK  Name = 9,13b-dihydroxy-3a-methyl-3-(5-oxo-2,5-dihydrofuran-3-yl)-hexadecahydro-1H-cyclodeca[e]indene-6,11-dione
REMARK  1 active torsions:
REMARK  status: ('A' for Active; 'I' for Inactive)
REMARK    1  A    between atoms: C_4  and  C_5
REMARK                            x       y       z     vdW  Elec       q    Type
REMARK                         _______ _______ _______ _____ _____    ______ ____
ROOT
ATOM      1  C   UNL     1       0.858  -0.601   0.000  0.00  0.00    +0.123 C 
ATOM      2  O   UNL     1       0.858  -1.639   0.000  0.00  0.00    -0.226 OA
ATOM      3  C   UNL     1       1.776  -0.904   0.000  0.00  0.00    +0.030 C 
ATOM      4  C   UNL     1       2.340  -0.111   0.000  0.00  0.00    +0.007 C 
ATOM      5  C   UNL     1       1.776   0.641   0.000  0.00  0.00    +0.024 C 
ATOM      6  C   UNL     1      -0.003  -1.092   0.000  0.00  0.00    +0.044 C 
ATOM      7  C   UNL     1       0.436  -2.010   0.000  0.00  0.00    +0.006 C 
ATOM      8  C   UNL     1       0.219  -2.996   0.000  0.00  0.00    +0.064 C 
ATOM      9  C   UNL     1      -0.533  -3.709   0.000  0.00  0.00    +0.153 C 
ATOM     10  O   UNL     1      -0.191  -4.529   0.000  0.00  0.00    -0.296 OA
ATOM     11  C   UNL     1      -1.559  -3.788   0.000  0.00  0.00    +0.097 C 
ATOM     12  C   UNL     1      -2.426  -3.298   0.000  0.00  0.00    +0.160 C 
ATOM     13  C   UNL     1      -2.848  -2.352   0.000  0.00  0.00    +0.041 C 
ATOM     14  C   UNL     1      -2.631  -1.365   0.000  0.00  0.00    +0.067 C 
ATOM     15  C   UNL     1      -1.879  -0.699   0.000  0.00  0.00    +0.146 C 
ATOM     16  O   UNL     1      -2.244   0.140   0.000  0.00  0.00    -0.296 OA
ATOM     17  O   UNL     1      -3.133  -3.857   0.000  0.00  0.00    -0.223 OA
ATOM     18  C   UNL     1      -0.852  -0.601   0.000  0.00  0.00    +0.070 C 
ATOM     19  C   UNL     1      -0.852   0.385   0.000  0.00  0.00    +0.003 C 
ATOM     20  C   UNL     1      -0.003   0.892   0.000  0.00  0.00    +0.003 C 
ATOM     21  C   UNL     1       0.858   0.385   0.000  0.00  0.00    +0.029 C 
ATOM     22  C   UNL     1       0.858   1.354   0.000  0.00  0.00    +0.003 C 
ENDROOT
BRANCH   5  23
ATOM     23  C   UNL     1       2.107   1.696   0.000  0.00  0.00    +0.005 C 
ATOM     24  C   UNL     1       3.133   2.038   0.000  0.00  0.00    +0.231 C 
ATOM     25  O   UNL     1       3.133   3.093   0.000  0.00  0.00    -0.441 OA
ATOM     26  C   UNL     1       2.107   3.435   0.000  0.00  0.00    +0.341 C 
ATOM     27  O   UNL     1       1.736   4.529   0.000  0.00  0.00    -0.245 OA
ATOM     28  C   UNL     1       1.474   2.517   0.000  0.00  0.00    +0.077 C 
ENDBRANCH   5  23
TORSDOF 1
ENDMDL
MODEL      281
REMARK  Name = [(E)-{[3a,5a,7-trihydroxy-11a-methyl-1-(5-oxo-2,5-dihydrofuran-3-yl)-hexadecahydro-1H-cyclopenta[a]phenanthren-9a-yl]methylidene}amino]urea
REMARK  3 active torsions:
REMARK  status: ('A' for Active; 'I' for Inactive)
REMARK    1  A    between atoms: C_2  and  C_22
REMARK    2  A    between atoms: C_7  and  C_8
REMARK    3  A    between atoms: N_20  and  N_24
REMARK                            x       y       z     vdW  Elec       q    Type
REMARK                         _______ _______ _______ _____ _____    ______ ____
ROOT
ATOM      1  C   UNL     1       1.136  -0.741   0.000  0.00  0.00    +0.123 C 
ATOM      2  O   UNL     1       1.136  -1.747   0.000  0.00  0.00    -0.226 OA
ATOM      3  C   UNL     1       2.068  -1.080   0.000  0.00  0.00    +0.030 C 
ATOM      4  C   UNL     1       2.630  -0.253   0.000  0.00  0.00    +0.007 C 
ATOM      5  C   UNL     1       2.037   0.550   0.000  0.00  0.00    +0.024 C 
ATOM      6  C   UNL     1       0.259  -1.260   0.000  0.00  0.00    +0.038 C 
ATOM      7  C   UNL     1       0.259  -2.266   0.000  0.00  0.00    +0.001 C 
ATOM      8  C   UNL     1      -0.617  -2.772   0.000  0.00  0.00    +0.031 C 
ATOM      9  C   UNL     1      -1.476  -2.266   0.000  0.00  0.00    +0.134 C 
ATOM     10  C   UNL     1      -1.476  -1.260   0.000  0.00  0.00    +0.061 C 
ATOM     11  C   UNL     1      -2.334  -0.741   0.000  0.00  0.00    +0.010 C 
ATOM     12  C   UNL     1      -3.223  -1.260   0.000  0.00  0.00    +0.033 C 
ATOM     13  C   UNL     1      -3.223  -2.266   0.000  0.00  0.00    +0.154 C 
ATOM     14  O   UNL     1      -4.112  -2.772   0.000  0.00  0.00    -0.223 OA
ATOM     15  O   UNL     1      -1.476  -3.217   0.000  0.00  0.00    -0.225 OA
ATOM     16  C   UNL     1      -2.334  -2.772   0.000  0.00  0.00    +0.064 C 
ATOM     17  C   UNL     1      -0.617  -0.741   0.000  0.00  0.00    +0.019 C 
ATOM     18  C   UNL     1      -0.617   0.253   0.000  0.00  0.00    -0.004 C 
ATOM     19  C   UNL     1       0.229   0.759   0.000  0.00  0.00    +0.002 C 
ATOM     20  C   UNL     1       1.136   0.296   0.000  0.00  0.00    +0.029 C 
ATOM     21  C   UNL     1       1.136   1.259   0.000  0.00  0.00    +0.003 C 
ENDROOT
BRANCH   5  22
ATOM     22  C   UNL     1       2.303   1.500   0.000  0.00  0.00    +0.005 C 
ATOM     23  C   UNL     1       1.593   2.402   0.000  0.00  0.00    +0.231 C 
ATOM     24  O   UNL     1       2.291   3.130   0.000  0.00  0.00    -0.441 OA
ATOM     25  C   UNL     1       3.254   2.741   0.000  0.00  0.00    +0.341 C 
ATOM     26  O   UNL     1       4.112   3.217   0.000  0.00  0.00    -0.245 OA
ATOM     27  C   UNL     1       3.254   1.852   0.000  0.00  0.00    +0.077 C 
ENDBRANCH   5  22
BRANCH  10  28
ATOM     28  C   UNL     1      -1.476  -0.266   0.000  0.00  0.00    +0.095 C 
ATOM     29  N   UNL     1      -2.334   0.222   0.000  0.00  0.00    -0.158 NA
BRANCH  29  30
ATOM     30  N   UNL     1      -2.334   1.216   0.000  0.00  0.00    -0.060 NA
ATOM     31  C   UNL     1      -3.192   1.704   0.000  0.00  0.00    +0.380 C 
ATOM     32  N   UNL     1      -4.050   1.185   0.000  0.00  0.00    -0.066 NA
ATOM     33  O   UNL     1      -3.192   2.710   0.000  0.00  0.00    -0.246 OA
ENDBRANCH  29  30
ENDBRANCH  10  28
TORSDOF 3
ENDMDL
MODEL      282
REMARK  Name = 3a,5a,7-trihydroxy-11a-methyl-1-(5-oxo-2,5-dihydrofuran-3-yl)-hexadecahydro-1H-cyclopenta[a]phenanthrene-9a-carbonitrile
REMARK  2 active torsions:
REMARK  status: ('A' for Active; 'I' for Inactive)
REMARK    1  A    between atoms: C_1  and  C_10
REMARK    2  A    between atoms: C_7  and  C_8
REMARK                            x       y       z     vdW  Elec       q    Type
REMARK                         _______ _______ _______ _____ _____    ______ ____
ROOT
ATOM      1  C   UNL     1      -1.106  -1.640   0.000  0.00  0.00    +0.101 C 
ATOM      2  C   UNL     1      -1.982  -1.153   0.000  0.00  0.00    +0.019 C 
ATOM      3  C   UNL     1      -2.757  -1.640   0.000  0.00  0.00    +0.034 C 
ATOM      4  C   UNL     1      -2.757  -2.602   0.000  0.00  0.00    +0.155 C 
ATOM      5  C   UNL     1      -1.982  -3.048   0.000  0.00  0.00    +0.064 C 
ATOM      6  O   UNL     1      -3.618  -3.105   0.000  0.00  0.00    -0.223 OA
ATOM      7  C   UNL     1      -0.280  -1.153   0.000  0.00  0.00    +0.027 C 
ATOM      8  C   UNL     1      -0.280  -0.190   0.000  0.00  0.00    -0.003 C 
ATOM      9  C   UNL     1       0.546   0.291   0.000  0.00  0.00    +0.002 C 
ATOM     10  C   UNL     1       1.393  -0.190   0.000  0.00  0.00    +0.029 C 
ATOM     11  C   UNL     1       1.393  -1.153   0.000  0.00  0.00    +0.123 C 
ATOM     12  O   UNL     1       1.393  -2.172   0.000  0.00  0.00    -0.226 OA
ATOM     13  C   UNL     1       2.290  -1.447   0.000  0.00  0.00    +0.030 C 
ATOM     14  C   UNL     1       2.843  -0.671   0.000  0.00  0.00    +0.007 C 
ATOM     15  C   UNL     1       1.393   0.757   0.000  0.00  0.00    +0.003 C 
ATOM     16  C   UNL     1       2.290   0.068   0.000  0.00  0.00    +0.024 C 
ATOM     17  C   UNL     1       0.546  -1.640   0.000  0.00  0.00    +0.039 C 
ATOM     18  C   UNL     1       0.546  -2.602   0.000  0.00  0.00    +0.001 C 
ATOM     19  C   UNL     1      -0.280  -3.048   0.000  0.00  0.00    +0.031 C 
ATOM     20  C   UNL     1      -1.106  -2.602   0.000  0.00  0.00    +0.141 C 
ATOM     21  O   UNL     1      -1.106  -3.859   0.000  0.00  0.00    -0.225 OA
ENDROOT
BRANCH  16  22
ATOM     22  C   UNL     1       2.599   1.088   0.000  0.00  0.00    +0.005 C 
ATOM     23  C   UNL     1       3.618   1.432   0.000  0.00  0.00    +0.231 C 
ATOM     24  O   UNL     1       3.618   2.466   0.000  0.00  0.00    -0.441 OA
ATOM     25  C   UNL     1       2.599   2.789   0.000  0.00  0.00    +0.341 C 
ATOM     26  O   UNL     1       2.254   3.859   0.000  0.00  0.00    -0.245 OA
ATOM     27  C   UNL     1       1.996   1.891   0.000  0.00  0.00    +0.077 C 
ENDBRANCH  16  22
BRANCH   1  28
ATOM     28  C   UNL     1      -1.091  -0.348   0.000  0.00  0.00    +0.073 C 
ATOM     29  N   UNL     1      -1.091   0.858   0.000  0.00  0.00    -0.196 NA
ENDBRANCH   1  28
TORSDOF 2
ENDMDL
MODEL      283
REMARK  Name = 4-{3a,5a,7-trihydroxy-9a-[(E)-(hydroxyimino)methyl]-11a-methyl-hexadecahydro-1H-cyclopenta[a]phenanthren-1-yl}-2,5-dihydrofuran-2-one
REMARK  2 active torsions:
REMARK  status: ('A' for Active; 'I' for Inactive)
REMARK    1  A    between atoms: C_2  and  C_21
REMARK    2  A    between atoms: C_7  and  C_8
REMARK                            x       y       z     vdW  Elec       q    Type
REMARK                         _______ _______ _______ _____ _____    ______ ____
ROOT
ATOM      1  C   UNL     1       1.420  -1.135   0.000  0.00  0.00    +0.123 C 
ATOM      2  O   UNL     1       1.420  -2.225   0.000  0.00  0.00    -0.226 OA
ATOM      3  C   UNL     1       2.295  -1.437   0.000  0.00  0.00    +0.030 C 
ATOM      4  C   UNL     1       2.878  -0.653   0.000  0.00  0.00    +0.007 C 
ATOM      5  C   UNL     1       2.295   0.093   0.000  0.00  0.00    +0.024 C 
ATOM      6  C   UNL     1       0.559  -1.642   0.000  0.00  0.00    +0.038 C 
ATOM      7  C   UNL     1       0.559  -2.603   0.000  0.00  0.00    +0.001 C 
ATOM      8  C   UNL     1      -0.277  -3.076   0.000  0.00  0.00    +0.031 C 
ATOM      9  C   UNL     1      -1.138  -2.603   0.000  0.00  0.00    +0.134 C 
ATOM     10  C   UNL     1      -1.138  -1.642   0.000  0.00  0.00    +0.062 C 
ATOM     11  C   UNL     1      -2.008  -1.135   0.000  0.00  0.00    +0.010 C 
ATOM     12  C   UNL     1      -2.801  -1.642   0.000  0.00  0.00    +0.033 C 
ATOM     13  C   UNL     1      -2.801  -2.603   0.000  0.00  0.00    +0.154 C 
ATOM     14  O   UNL     1      -3.672  -3.134   0.000  0.00  0.00    -0.223 OA
ATOM     15  O   UNL     1      -1.138  -3.856   0.000  0.00  0.00    -0.225 OA
ATOM     16  C   UNL     1      -2.008  -3.076   0.000  0.00  0.00    +0.064 C 
ATOM     17  C   UNL     1      -0.277  -1.135   0.000  0.00  0.00    +0.019 C 
ATOM     18  C   UNL     1      -0.277  -0.175   0.000  0.00  0.00    -0.004 C 
ATOM     19  C   UNL     1       0.559   0.308   0.000  0.00  0.00    +0.002 C 
ATOM     20  C   UNL     1       1.420  -0.175   0.000  0.00  0.00    +0.029 C 
ATOM     21  C   UNL     1       1.420   0.815   0.000  0.00  0.00    +0.003 C 
ENDROOT
BRANCH   5  22
ATOM     22  C   UNL     1       2.672   1.087   0.000  0.00  0.00    +0.005 C 
ATOM     23  C   UNL     1       3.672   1.432   0.000  0.00  0.00    +0.231 C 
ATOM     24  O   UNL     1       3.672   2.465   0.000  0.00  0.00    -0.441 OA
ATOM     25  C   UNL     1       2.672   2.833   0.000  0.00  0.00    +0.341 C 
ATOM     26  O   UNL     1       2.295   3.856   0.000  0.00  0.00    -0.245 OA
ATOM     27  C   UNL     1       2.018   1.915   0.000  0.00  0.00    +0.077 C 
ENDBRANCH   5  22
BRANCH  10  28
ATOM     28  C   UNL     1      -1.138  -0.653   0.000  0.00  0.00    +0.120 C 
ATOM     29  N   UNL     1      -1.984  -0.175   0.000  0.00  0.00    -0.032 NA
ATOM     30  O   UNL     1      -1.984   0.915   0.000  0.00  0.00    -0.143 OA
ENDBRANCH  10  28
TORSDOF 2
ENDMDL
MODEL      284
REMARK  Name = 4-[3a,5a,7-trihydroxy-9a-(hydroxymethyl)-11a-methyl-hexadecahydro-1H-cyclopenta[a]phenanthren-1-yl]-2,5-dihydrofuran-2-one
REMARK  2 active torsions:
REMARK  status: ('A' for Active; 'I' for Inactive)
REMARK    1  A    between atoms: C_2  and  C_24
REMARK    2  A    between atoms: C_7  and  C_8
REMARK                            x       y       z     vdW  Elec       q    Type
REMARK                         _______ _______ _______ _____ _____    ______ ____
ROOT
ATOM      1  C   UNL     1       1.420  -1.139   0.000  0.00  0.00    +0.123 C 
ATOM      2  O   UNL     1       1.420  -2.223   0.000  0.00  0.00    -0.226 OA
ATOM      3  C   UNL     1       2.316  -1.427   0.000  0.00  0.00    +0.030 C 
ATOM      4  C   UNL     1       2.877  -0.655   0.000  0.00  0.00    +0.007 C 
ATOM      5  C   UNL     1       2.316   0.103   0.000  0.00  0.00    +0.024 C 
ATOM      6  C   UNL     1       0.556  -1.647   0.000  0.00  0.00    +0.038 C 
ATOM      7  C   UNL     1       0.556  -2.611   0.000  0.00  0.00    +0.001 C 
ATOM      8  C   UNL     1      -0.273  -3.086   0.000  0.00  0.00    +0.030 C 
ATOM      9  C   UNL     1      -1.137  -2.611   0.000  0.00  0.00    +0.131 C 
ATOM     10  C   UNL     1      -1.137  -1.647   0.000  0.00  0.00    +0.053 C 
ATOM     11  C   UNL     1      -2.014  -1.139   0.000  0.00  0.00    +0.007 C 
ATOM     12  C   UNL     1      -2.796  -1.647   0.000  0.00  0.00    +0.033 C 
ATOM     13  C   UNL     1      -2.796  -2.611   0.000  0.00  0.00    +0.154 C 
ATOM     14  O   UNL     1      -3.683  -3.129   0.000  0.00  0.00    -0.223 OA
ATOM     15  O   UNL     1      -1.137  -3.877   0.000  0.00  0.00    -0.226 OA
ATOM     16  C   UNL     1      -2.014  -3.086   0.000  0.00  0.00    +0.063 C 
ATOM     17  C   UNL     1      -0.273  -1.139   0.000  0.00  0.00    +0.016 C 
ATOM     18  C   UNL     1      -0.273  -0.161   0.000  0.00  0.00    -0.004 C 
ATOM     19  C   UNL     1       0.556   0.324   0.000  0.00  0.00    +0.002 C 
ATOM     20  C   UNL     1       1.420  -0.161   0.000  0.00  0.00    +0.029 C 
ATOM     21  C   UNL     1       1.420   0.827   0.000  0.00  0.00    +0.003 C 
ENDROOT
BRANCH   5  22
ATOM     22  C   UNL     1       2.671   1.115   0.000  0.00  0.00    +0.005 C 
ATOM     23  C   UNL     1       3.683   1.451   0.000  0.00  0.00    +0.231 C 
ATOM     24  O   UNL     1       3.683   2.487   0.000  0.00  0.00    -0.441 OA
ATOM     25  C   UNL     1       2.671   2.856   0.000  0.00  0.00    +0.341 C 
ATOM     26  O   UNL     1       2.316   3.877   0.000  0.00  0.00    -0.245 OA
ATOM     27  C   UNL     1       2.029   1.935   0.000  0.00  0.00    +0.077 C 
ENDBRANCH   5  22
BRANCH  10  28
ATOM     28  C   UNL     1      -1.137  -0.655   0.000  0.00  0.00    +0.184 C 
ATOM     29  O   UNL     1      -1.990  -0.161   0.000  0.00  0.00    -0.220 OA
ENDBRANCH  10  28
TORSDOF 2
ENDMDL
MODEL      285
REMARK  Name = 3a,7-dihydroxy-11a-methyl-1-(5-oxo-2,5-dihydrofuran-3-yl)-1H,2H,3H,3aH,3bH,4H,5H,7H,8H,9H,9aH,9bH,10H,11H,11aH-cyclopenta[a]phenanthrene-9a-carbaldehyde
REMARK  2 active torsions:
REMARK  status: ('A' for Active; 'I' for Inactive)
REMARK    1  A    between atoms: C_3  and  C_21
REMARK    2  A    between atoms: C_7  and  C_8
REMARK                            x       y       z     vdW  Elec       q    Type
REMARK                         _______ _______ _______ _____ _____    ______ ____
ROOT
ATOM      1  C   UNL     1       1.433  -1.572   0.000  0.00  0.00    +0.123 C 
ATOM      2  O   UNL     1       1.433  -2.628   0.000  0.00  0.00    -0.226 OA
ATOM      3  C   UNL     1       2.353  -1.851   0.000  0.00  0.00    +0.030 C 
ATOM      4  C   UNL     1       2.920  -1.079   0.000  0.00  0.00    +0.007 C 
ATOM      5  C   UNL     1       2.353  -0.325   0.000  0.00  0.00    +0.024 C 
ATOM      6  C   UNL     1       0.552  -2.052   0.000  0.00  0.00    +0.038 C 
ATOM      7  C   UNL     1       0.552  -3.055   0.000  0.00  0.00    +0.002 C 
ATOM      8  C   UNL     1      -0.294  -3.517   0.000  0.00  0.00    +0.022 C 
ATOM      9  C   UNL     1      -1.154  -3.055   0.000  0.00  0.00    -0.040 C 
ATOM     10  C   UNL     1      -1.154  -2.052   0.000  0.00  0.00    +0.070 C 
ATOM     11  C   UNL     1      -2.043  -1.572   0.000  0.00  0.00    +0.014 C 
ATOM     12  C   UNL     1      -2.837  -2.052   0.000  0.00  0.00    +0.038 C 
ATOM     13  C   UNL     1      -2.837  -3.055   0.000  0.00  0.00    +0.173 C 
ATOM     14  O   UNL     1      -3.705  -3.579   0.000  0.00  0.00    -0.218 OA
ATOM     15  C   UNL     1      -2.043  -3.517   0.000  0.00  0.00    -0.002 C 
ATOM     16  C   UNL     1      -0.294  -1.572   0.000  0.00  0.00    +0.022 C 
ATOM     17  C   UNL     1      -0.294  -0.578   0.000  0.00  0.00    -0.003 C 
ATOM     18  C   UNL     1       0.552  -0.094   0.000  0.00  0.00    +0.002 C 
ATOM     19  C   UNL     1       1.433  -0.578   0.000  0.00  0.00    +0.029 C 
ATOM     20  C   UNL     1       1.433   0.386   0.000  0.00  0.00    +0.003 C 
ENDROOT
BRANCH   5  21
ATOM     21  C   UNL     1       2.667   0.713   0.000  0.00  0.00    +0.005 C 
ATOM     22  C   UNL     1       3.705   1.079   0.000  0.00  0.00    +0.231 C 
ATOM     23  O   UNL     1       3.705   2.144   0.000  0.00  0.00    -0.441 OA
ATOM     24  C   UNL     1       2.667   2.479   0.000  0.00  0.00    +0.341 C 
ATOM     25  O   UNL     1       2.322   3.579   0.000  0.00  0.00    -0.245 OA
ATOM     26  C   UNL     1       2.039   1.538   0.000  0.00  0.00    +0.077 C 
ENDBRANCH   5  21
BRANCH  10  27
ATOM     27  C   UNL     1      -1.162  -1.005   0.000  0.00  0.00    +0.210 C 
ATOM     28  O   UNL     1      -1.925  -0.556   0.000  0.00  0.00    -0.288 OA
ENDBRANCH  10  27
TORSDOF 2
ENDMDL
MODEL      286
REMARK  Name = (2-{[3a-hydroxy-9a,11a-dimethyl-1-(5-oxo-2,5-dihydrofuran-3-yl)-7-{[2-(trimethylazaniumyl)acetyl]oxy}-hexadecahydro-1H-cyclopenta[a]phenanthren-2-yl]oxy}-2-oxoethyl)trimethylazanium
REMARK  9 active torsions:
REMARK  status: ('A' for Active; 'I' for Inactive)
REMARK    1  A    between atoms: C_4  and  C_6
REMARK    2  A    between atoms: C_9  and  O_15
REMARK    3  A    between atoms: C_14  and  O_15
REMARK    4  A    between atoms: C_14  and  C_28
REMARK    5  A    between atoms: C_17  and  O_26
REMARK    6  A    between atoms: C_17  and  C_29
REMARK    7  A    between atoms: N_22  and  C_29
REMARK    8  A    between atoms: N_23  and  C_28
REMARK    9  A    between atoms: O_26  and  C_33
REMARK                            x       y       z     vdW  Elec       q    Type
REMARK                         _______ _______ _______ _____ _____    ______ ____
ROOT
ATOM      1  C   UNL     1       1.160  -0.448   0.000  0.00  0.00    +0.127 C 
ATOM      2  O   UNL     1       1.141  -1.717   0.000  0.00  0.00    -0.226 OA
ATOM      3  C   UNL     1       2.069  -0.747   0.000  0.00  0.00    +0.074 C 
ATOM      4  C   UNL     1       2.622   0.044   0.000  0.00  0.00    +0.175 C 
ATOM      5  C   UNL     1       2.069   0.790   0.000  0.00  0.00    +0.064 C 
ATOM      6  C   UNL     1       0.295  -0.939   0.000  0.00  0.00    +0.038 C 
ATOM      7  C   UNL     1       0.295  -1.929   0.000  0.00  0.00    -0.002 C 
ATOM      8  C   UNL     1      -0.526  -2.389   0.000  0.00  0.00    -0.000 C 
ATOM      9  C   UNL     1      -1.397  -1.929   0.000  0.00  0.00    +0.003 C 
ATOM     10  C   UNL     1      -1.397  -0.939   0.000  0.00  0.00    -0.003 C 
ATOM     11  C   UNL     1      -1.397   0.044   0.000  0.00  0.00    -0.000 C 
ATOM     12  C   UNL     1      -2.274  -0.448   0.000  0.00  0.00    +0.003 C 
ATOM     13  C   UNL     1      -3.064  -0.939   0.000  0.00  0.00    +0.044 C 
ATOM     14  C   UNL     1      -3.064  -1.929   0.000  0.00  0.00    +0.169 C 
ATOM     15  C   UNL     1      -2.274  -2.389   0.000  0.00  0.00    +0.044 C 
ATOM     16  C   UNL     1      -0.526  -0.448   0.000  0.00  0.00    +0.011 C 
ATOM     17  C   UNL     1      -0.526   0.535   0.000  0.00  0.00    -0.004 C 
ATOM     18  C   UNL     1       0.295   1.014   0.000  0.00  0.00    +0.002 C 
ATOM     19  C   UNL     1       1.160   0.535   0.000  0.00  0.00    +0.033 C 
ATOM     20  C   UNL     1       1.141   1.717   0.000  0.00  0.00    +0.003 C 
ENDROOT
BRANCH   5  21
ATOM     21  C   UNL     1       2.398   1.792   0.000  0.00  0.00    +0.009 C 
ATOM     22  C   UNL     1       3.412   2.134   0.000  0.00  0.00    +0.231 C 
ATOM     23  O   UNL     1       3.400   3.167   0.000  0.00  0.00    -0.441 OA
ATOM     24  C   UNL     1       2.386   3.509   0.000  0.00  0.00    +0.341 C 
ATOM     25  O   UNL     1       2.038   4.542   0.000  0.00  0.00    -0.245 OA
ATOM     26  C   UNL     1       1.758   2.613   0.000  0.00  0.00    +0.077 C 
ENDBRANCH   5  21
BRANCH   4  27
ATOM     27  O   UNL     1       3.605   0.075   0.000  0.00  0.00    -0.448 OA
BRANCH  27  28
ATOM     28  C   UNL     1       4.128  -0.759   0.000  0.00  0.00    +0.374 C 
ATOM     29  O   UNL     1       3.605  -1.611   0.000  0.00  0.00    -0.243 OA
BRANCH  28  30
ATOM     30  C   UNL     1       5.086  -0.672   0.000  0.00  0.00    +0.220 C 
BRANCH  30  31
ATOM     31  N   UNL     1       5.490   0.224   0.000  0.00  0.00    +0.319 N 
ATOM     32  C   UNL     1       5.832   1.132   0.000  0.00  0.00    +0.172 C 
ATOM     33  C   UNL     1       4.862   0.927   0.000  0.00  0.00    +0.172 C 
ATOM     34  C   UNL     1       6.548   0.342   0.000  0.00  0.00    +0.172 C 
ENDBRANCH  30  31
ENDBRANCH  28  30
ENDBRANCH  27  28
ENDBRANCH   4  27
BRANCH  14  35
ATOM     35  O   UNL     1      -3.904  -2.476   0.000  0.00  0.00    -0.448 OA
BRANCH  35  36
ATOM     36  C   UNL     1      -4.812  -2.028   0.000  0.00  0.00    +0.374 C 
ATOM     37  O   UNL     1      -4.812  -1.014   0.000  0.00  0.00    -0.243 OA
BRANCH  36  38
ATOM     38  C   UNL     1      -5.665  -2.551   0.000  0.00  0.00    +0.220 C 
BRANCH  38  39
ATOM     39  N   UNL     1      -5.652  -3.553   0.000  0.00  0.00    +0.319 N 
ATOM     40  C   UNL     1      -5.590  -4.542   0.000  0.00  0.00    +0.172 C 
ATOM     41  C   UNL     1      -4.782  -3.945   0.000  0.00  0.00    +0.172 C 
ATOM     42  C   UNL     1      -6.548  -4.106   0.000  0.00  0.00    +0.172 C 
ENDBRANCH  38  39
ENDBRANCH  36  38
ENDBRANCH  35  36
ENDBRANCH  14  35
TORSDOF 9
ENDMDL
MODEL      287
REMARK  Name = 3-{[({8a-methyl-5-methylidene-2-oxo-dodecahydronaphtho[2,3-b]furan-3-yl}methyl)(hydroxy)amino]methyl}-8a-methyl-5-methylidene-dodecahydronaphtho[2,3-b]furan-2-one
REMARK  4 active torsions:
REMARK  status: ('A' for Active; 'I' for Inactive)
REMARK    1  A    between atoms: C_1  and  C_22
REMARK    2  A    between atoms: C_2  and  C_21
REMARK    3  A    between atoms: C_21  and  N_23
REMARK    4  A    between atoms: C_22  and  N_23
REMARK                            x       y       z     vdW  Elec       q    Type
REMARK                         _______ _______ _______ _____ _____    ______ ____
ROOT
ATOM      1  N   UNL     1       0.603   0.045   0.000  0.00  0.00    -0.132 NA
ATOM      2  O   UNL     1       1.363  -0.765   0.000  0.00  0.00    -0.118 OA
ENDROOT
BRANCH   1   3
ATOM      3  C   UNL     1       0.961   0.978   0.000  0.00  0.00    +0.115 C 
BRANCH   3   4
ATOM      4  C   UNL     1       1.959   1.167   0.000  0.00  0.00    +0.121 C 
ATOM      5  C   UNL     1       2.698   0.501   0.000  0.00  0.00    +0.052 C 
ATOM      6  C   UNL     1       2.698  -0.526   0.000  0.00  0.00    +0.008 C 
ATOM      7  C   UNL     1       3.558  -1.028   0.000  0.00  0.00    +0.019 C 
ATOM      8  C   UNL     1       3.558  -2.026   0.000  0.00  0.00    -0.045 C 
ATOM      9  C   UNL     1       4.426  -2.517   0.000  0.00  0.00    +0.022 C 
ATOM     10  C   UNL     1       5.295  -2.016   0.000  0.00  0.00    +0.004 C 
ATOM     11  C   UNL     1       5.295  -1.028   0.000  0.00  0.00    +0.001 C 
ATOM     12  C   UNL     1       2.698  -2.527   0.000  0.00  0.00    -0.009 C 
ATOM     13  C   UNL     1       4.417  -0.526   0.000  0.00  0.00    +0.007 C 
ATOM     14  C   UNL     1       4.417   0.501   0.000  0.00  0.00    +0.044 C 
ATOM     15  C   UNL     1       5.250   0.035   0.000  0.00  0.00    +0.000 C 
ATOM     16  C   UNL     1       3.558   0.998   0.000  0.00  0.00    +0.169 C 
ATOM     17  O   UNL     1       3.344   1.976   0.000  0.00  0.00    -0.452 OA
ATOM     18  C   UNL     1       2.366   2.050   0.000  0.00  0.00    +0.318 C 
ATOM     19  O   UNL     1       1.864   2.895   0.000  0.00  0.00    -0.250 OA
ENDBRANCH   3   4
ENDBRANCH   1   3
BRANCH   1  20
ATOM     20  C   UNL     1      -0.375  -0.119   0.000  0.00  0.00    +0.115 C 
BRANCH  20  21
ATOM     21  C   UNL     1      -0.732  -1.048   0.000  0.00  0.00    +0.121 C 
ATOM     22  C   UNL     1      -1.710  -1.216   0.000  0.00  0.00    +0.052 C 
ATOM     23  C   UNL     1      -2.495  -0.596   0.000  0.00  0.00    +0.008 C 
ATOM     24  C   UNL     1      -3.428  -0.978   0.000  0.00  0.00    +0.019 C 
ATOM     25  C   UNL     1      -4.213  -0.348   0.000  0.00  0.00    -0.045 C 
ATOM     26  C   UNL     1      -5.156  -0.715   0.000  0.00  0.00    +0.022 C 
ATOM     27  C   UNL     1      -5.295  -1.703   0.000  0.00  0.00    +0.004 C 
ATOM     28  C   UNL     1      -4.511  -2.338   0.000  0.00  0.00    +0.001 C 
ATOM     29  C   UNL     1      -4.069   0.630   0.000  0.00  0.00    -0.009 C 
ATOM     30  C   UNL     1      -3.567  -1.956   0.000  0.00  0.00    +0.007 C 
ATOM     31  C   UNL     1      -2.783  -2.577   0.000  0.00  0.00    +0.044 C 
ATOM     32  C   UNL     1      -3.701  -2.895   0.000  0.00  0.00    +0.000 C 
ATOM     33  C   UNL     1      -1.854  -2.195   0.000  0.00  0.00    +0.169 C 
ATOM     34  O   UNL     1      -0.971  -2.646   0.000  0.00  0.00    -0.452 OA
ATOM     35  C   UNL     1      -0.281  -1.931   0.000  0.00  0.00    +0.318 C 
ATOM     36  O   UNL     1       0.698  -2.061   0.000  0.00  0.00    -0.250 OA
ENDBRANCH  20  21
ENDBRANCH   1  20
TORSDOF 4
ENDMDL
MODEL      288
REMARK  Name = methyl 4-{4,7,11-trihydroxy-9a,11a-dimethyl-hexadecahydro-1H-cyclopenta[a]phenanthren-1-yl}pentanoate
REMARK  5 active torsions:
REMARK  status: ('A' for Active; 'I' for Inactive)
REMARK    1  A    between atoms: C_10  and  C_18
REMARK    2  A    between atoms: C_15  and  C_22
REMARK    3  A    between atoms: C_15  and  O_27
REMARK    4  A    between atoms: C_18  and  C_19
REMARK    5  A    between atoms: C_19  and  C_22
REMARK                            x       y       z     vdW  Elec       q    Type
REMARK                         _______ _______ _______ _____ _____    ______ ____
ROOT
ATOM      1  C   UNL     1      -0.149   0.508   0.000  0.00  0.00    +0.028 C 
ATOM      2  C   UNL     1      -0.149   1.518   0.000  0.00  0.00    +0.003 C 
ATOM      3  C   UNL     1       0.807   0.814   0.000  0.00  0.00    +0.002 C 
ATOM      4  C   UNL     1       1.387   0.000   0.000  0.00  0.00    +0.000 C 
ATOM      5  C   UNL     1       0.807  -0.800   0.000  0.00  0.00    +0.000 C 
ATOM      6  C   UNL     1      -1.017   1.010   0.000  0.00  0.00    +0.152 C 
ATOM      7  O   UNL     1      -1.017   1.998   0.000  0.00  0.00    -0.223 OA
ATOM      8  C   UNL     1      -1.895   0.508   0.000  0.00  0.00    +0.033 C 
ATOM      9  C   UNL     1      -1.872  -0.494   0.000  0.00  0.00    +0.005 C 
ATOM     10  C   UNL     1      -0.995  -0.997   0.000  0.00  0.00    +0.031 C 
ATOM     11  C   UNL     1      -0.995  -1.994   0.000  0.00  0.00    +0.152 C 
ATOM     12  O   UNL     1      -0.140  -2.487   0.000  0.00  0.00    -0.223 OA
ATOM     13  C   UNL     1      -1.872  -2.487   0.000  0.00  0.00    +0.033 C 
ATOM     14  C   UNL     1      -2.737  -1.994   0.000  0.00  0.00    +0.005 C 
ATOM     15  C   UNL     1      -3.596  -2.487   0.000  0.00  0.00    +0.033 C 
ATOM     16  C   UNL     1      -4.474  -1.994   0.000  0.00  0.00    +0.152 C 
ATOM     17  O   UNL     1      -5.361  -2.524   0.000  0.00  0.00    -0.223 OA
ATOM     18  C   UNL     1      -4.474  -0.997   0.000  0.00  0.00    +0.033 C 
ATOM     19  C   UNL     1      -3.596  -0.494   0.000  0.00  0.00    +0.003 C 
ATOM     20  C   UNL     1      -2.737  -0.997   0.000  0.00  0.00    +0.000 C 
ATOM     21  C   UNL     1      -2.737   0.000   0.000  0.00  0.00    +0.000 C 
ATOM     22  C   UNL     1      -0.149  -0.494   0.000  0.00  0.00    +0.005 C 
ENDROOT
BRANCH   3  23
ATOM     23  C   UNL     1       1.136   1.770   0.000  0.00  0.00    +0.001 C 
ATOM     24  C   UNL     1       0.446   2.524   0.000  0.00  0.00    +0.000 C 
BRANCH  23  25
ATOM     25  C   UNL     1       2.110   1.989   0.000  0.00  0.00    +0.012 C 
BRANCH  25  26
ATOM     26  C   UNL     1       2.769   1.244   0.000  0.00  0.00    +0.110 C 
BRANCH  26  27
ATOM     27  C   UNL     1       3.738   1.440   0.000  0.00  0.00    +0.317 C 
ATOM     28  O   UNL     1       4.067   2.373   0.000  0.00  0.00    -0.250 OA
BRANCH  27  29
ATOM     29  O   UNL     1       4.396   0.704   0.000  0.00  0.00    -0.444 OA
ATOM     30  C   UNL     1       5.361   0.892   0.000  0.00  0.00    +0.256 C 
ENDBRANCH  27  29
ENDBRANCH  26  27
ENDBRANCH  25  26
ENDBRANCH  23  25
ENDBRANCH   3  23
TORSDOF 5
ENDMDL
MODEL      289
REMARK  Name = 9a,11a-dimethyl-1-oxo-hexadecahydro-1H-cyclopenta[a]phenanthren-7-yl acetate
REMARK  2 active torsions:
REMARK  status: ('A' for Active; 'I' for Inactive)
REMARK    1  A    between atoms: C_13  and  O_17
REMARK    2  A    between atoms: O_17  and  C_19
REMARK                            x       y       z     vdW  Elec       q    Type
REMARK                         _______ _______ _______ _____ _____    ______ ____
ROOT
ATOM      1  C   UNL     1      -0.368   0.148   0.000  0.00  0.00    -0.003 C 
ATOM      2  C   UNL     1      -0.368   1.028   0.000  0.00  0.00    -0.000 C 
ATOM      3  C   UNL     1      -1.247   0.657   0.000  0.00  0.00    +0.003 C 
ATOM      4  C   UNL     1      -2.111   0.148   0.000  0.00  0.00    +0.044 C 
ATOM      5  C   UNL     1      -2.111  -0.869   0.000  0.00  0.00    +0.169 C 
ATOM      6  C   UNL     1      -1.247  -1.377   0.000  0.00  0.00    +0.040 C 
ATOM      7  C   UNL     1      -0.368  -0.869   0.000  0.00  0.00    +0.016 C 
ATOM      8  C   UNL     1       0.495  -1.377   0.000  0.00  0.00    -0.004 C 
ATOM      9  C   UNL     1       1.385  -0.869   0.000  0.00  0.00    -0.000 C 
ATOM     10  C   UNL     1       1.385   0.148   0.000  0.00  0.00    +0.000 C 
ATOM     11  C   UNL     1       2.264   0.646   0.000  0.00  0.00    +0.007 C 
ATOM     12  C   UNL     1       2.264   1.690   0.000  0.00  0.00    +0.052 C 
ATOM     13  C   UNL     1       2.264   2.643   0.000  0.00  0.00    +0.007 C 
ATOM     14  C   UNL     1       3.202   1.970   0.000  0.00  0.00    +0.150 C 
ATOM     15  C   UNL     1       3.800   1.192   0.000  0.00  0.00    +0.064 C 
ATOM     16  O   UNL     1       3.493   2.924   0.000  0.00  0.00    -0.296 OA
ATOM     17  C   UNL     1       1.385   2.172   0.000  0.00  0.00    +0.007 C 
ATOM     18  C   UNL     1       0.495   1.690   0.000  0.00  0.00    +0.000 C 
ATOM     19  C   UNL     1       3.228   0.355   0.000  0.00  0.00    +0.008 C 
ATOM     20  C   UNL     1       0.495   0.657   0.000  0.00  0.00    -0.000 C 
ENDROOT
BRANCH   5  21
ATOM     21  O   UNL     1      -2.974  -1.377   0.000  0.00  0.00    -0.452 OA
BRANCH  21  22
ATOM     22  C   UNL     1      -2.974  -2.368   0.000  0.00  0.00    +0.317 C 
ATOM     23  C   UNL     1      -2.148  -2.924   0.000  0.00  0.00    +0.121 C 
ATOM     24  O   UNL     1      -3.800  -2.924   0.000  0.00  0.00    -0.250 OA
ENDBRANCH  21  22
ENDBRANCH   5  21
TORSDOF 2
ENDMDL
MODEL      290
REMARK  Name = 1,9a,11a-trimethyl-7-oxo-hexadecahydro-1H-cyclopenta[a]phenanthren-1-yl acetate
REMARK  2 active torsions:
REMARK  status: ('A' for Active; 'I' for Inactive)
REMARK    1  A    between atoms: C_5  and  O_9
REMARK    2  A    between atoms: O_9  and  C_14
REMARK                            x       y       z     vdW  Elec       q    Type
REMARK                         _______ _______ _______ _____ _____    ______ ____
ROOT
ATOM      1  C   UNL     1       1.617   0.399   0.000  0.00  0.00    +0.034 C 
ATOM      2  C   UNL     1       1.617   1.421   0.000  0.00  0.00    +0.003 C 
ATOM      3  C   UNL     1       0.731   0.922   0.000  0.00  0.00    +0.003 C 
ATOM      4  C   UNL     1      -0.140   0.399   0.000  0.00  0.00    +0.000 C 
ATOM      5  C   UNL     1      -0.140  -0.598   0.000  0.00  0.00    -0.000 C 
ATOM      6  C   UNL     1       0.731  -1.077   0.000  0.00  0.00    +0.000 C 
ATOM      7  C   UNL     1       0.731  -2.133   0.000  0.00  0.00    -0.000 C 
ATOM      8  C   UNL     1      -0.140  -2.608   0.000  0.00  0.00    -0.004 C 
ATOM      9  C   UNL     1      -0.988  -2.133   0.000  0.00  0.00    +0.020 C 
ATOM     10  C   UNL     1      -1.859  -2.608   0.000  0.00  0.00    +0.061 C 
ATOM     11  C   UNL     1      -2.755  -2.133   0.000  0.00  0.00    +0.150 C 
ATOM     12  O   UNL     1      -3.627  -2.646   0.000  0.00  0.00    -0.296 OA
ATOM     13  C   UNL     1      -2.755  -1.077   0.000  0.00  0.00    +0.064 C 
ATOM     14  C   UNL     1      -1.859  -0.598   0.000  0.00  0.00    +0.007 C 
ATOM     15  C   UNL     1      -0.988  -1.077   0.000  0.00  0.00    -0.003 C 
ATOM     16  C   UNL     1      -0.988  -0.133   0.000  0.00  0.00    -0.000 C 
ATOM     17  C   UNL     1       2.533   0.690   0.000  0.00  0.00    +0.136 C 
ATOM     18  C   UNL     1       3.627   1.073   0.000  0.00  0.00    +0.044 C 
ATOM     19  C   UNL     1       3.138  -0.066   0.000  0.00  0.00    +0.040 C 
ATOM     20  C   UNL     1       2.567  -0.864   0.000  0.00  0.00    +0.004 C 
ATOM     21  C   UNL     1       1.617  -0.598   0.000  0.00  0.00    +0.003 C 
ENDROOT
BRANCH  17  22
ATOM     22  O   UNL     1       2.533   1.595   0.000  0.00  0.00    -0.456 OA
BRANCH  22  23
ATOM     23  C   UNL     1       1.685   2.099   0.000  0.00  0.00    +0.317 C 
ATOM     24  C   UNL     1       1.695   3.053   0.000  0.00  0.00    +0.121 C 
ATOM     25  O   UNL     1       0.731   1.692   0.000  0.00  0.00    -0.250 OA
ENDBRANCH  22  23
ENDBRANCH  17  22
TORSDOF 2
ENDMDL
MODEL      291
REMARK  Name = 2-{1-hydroxy-2,9a,11a-trimethyl-7-oxo-1H,2H,3H,3aH,3bH,4H,5H,5aH,6H,7H,8H,9H,9aH,11H,11aH-cyclopenta[a]phenanthren-1-yl}-2-oxoethyl acetate
REMARK  4 active torsions:
REMARK  status: ('A' for Active; 'I' for Inactive)
REMARK    1  A    between atoms: C_4  and  C_12
REMARK    2  A    between atoms: C_12  and  C_19
REMARK    3  A    between atoms: C_15  and  O_21
REMARK    4  A    between atoms: C_19  and  O_21
REMARK                            x       y       z     vdW  Elec       q    Type
REMARK                         _______ _______ _______ _____ _____    ______ ____
ROOT
ATOM      1  C   UNL     1       1.369  -0.349   0.000  0.00  0.00    +0.037 C 
ATOM      2  C   UNL     1       1.369   0.674   0.000  0.00  0.00    +0.003 C 
ATOM      3  C   UNL     1       0.482   0.174   0.000  0.00  0.00    +0.028 C 
ATOM      4  C   UNL     1      -0.390  -0.349   0.000  0.00  0.00    -0.035 C 
ATOM      5  C   UNL     1      -0.390  -1.348   0.000  0.00  0.00    -0.050 C 
ATOM      6  C   UNL     1       0.482  -1.828   0.000  0.00  0.00    +0.018 C 
ATOM      7  C   UNL     1       0.482  -2.885   0.000  0.00  0.00    +0.004 C 
ATOM      8  C   UNL     1      -0.390  -3.360   0.000  0.00  0.00    -0.003 C 
ATOM      9  C   UNL     1      -1.239  -2.885   0.000  0.00  0.00    +0.024 C 
ATOM     10  C   UNL     1      -2.111  -3.360   0.000  0.00  0.00    +0.061 C 
ATOM     11  C   UNL     1      -3.008  -2.885   0.000  0.00  0.00    +0.150 C 
ATOM     12  O   UNL     1      -3.881  -3.398   0.000  0.00  0.00    -0.296 OA
ATOM     13  C   UNL     1      -3.008  -1.828   0.000  0.00  0.00    +0.065 C 
ATOM     14  C   UNL     1      -2.111  -1.348   0.000  0.00  0.00    +0.011 C 
ATOM     15  C   UNL     1      -1.239  -1.828   0.000  0.00  0.00    +0.012 C 
ATOM     16  C   UNL     1      -1.239  -0.882   0.000  0.00  0.00    +0.004 C 
ATOM     17  C   UNL     1       2.286  -0.058   0.000  0.00  0.00    +0.181 C 
ATOM     18  O   UNL     1       3.381   0.325   0.000  0.00  0.00    -0.218 OA
ATOM     19  C   UNL     1       2.892  -0.814   0.000  0.00  0.00    +0.035 C 
ATOM     20  C   UNL     1       2.320  -1.614   0.000  0.00  0.00    +0.003 C 
ATOM     21  C   UNL     1       3.881  -0.780   0.000  0.00  0.00    +0.003 C 
ATOM     22  C   UNL     1       1.369  -1.348   0.000  0.00  0.00    +0.007 C 
ENDROOT
BRANCH  17  23
ATOM     23  C   UNL     1       2.286   0.848   0.000  0.00  0.00    +0.222 C 
ATOM     24  O   UNL     1       3.183   1.280   0.000  0.00  0.00    -0.290 OA
BRANCH  23  25
ATOM     25  C   UNL     1       1.437   1.353   0.000  0.00  0.00    +0.275 C 
BRANCH  25  26
ATOM     26  O   UNL     1       1.447   2.341   0.000  0.00  0.00    -0.440 OA
BRANCH  26  27
ATOM     27  C   UNL     1       0.599   2.841   0.000  0.00  0.00    +0.318 C 
ATOM     28  C   UNL     1       0.613   3.805   0.000  0.00  0.00    +0.121 C 
ATOM     29  O   UNL     1      -0.356   2.433   0.000  0.00  0.00    -0.250 OA
ENDBRANCH  26  27
ENDBRANCH  25  26
ENDBRANCH  23  25
ENDBRANCH  17  23
TORSDOF 4
ENDMDL
MODEL      292
REMARK  Name = 9a,11a-dimethyl-1-(6-methylheptan-2-yl)-hexadecahydro-1H-cyclopenta[a]phenanthrene
REMARK  5 active torsions:
REMARK  status: ('A' for Active; 'I' for Inactive)
REMARK    1  A    between atoms: C_6  and  C_14
REMARK    2  A    between atoms: C_14  and  C_19
REMARK    3  A    between atoms: C_18  and  C_19
REMARK    4  A    between atoms: C_18  and  C_22
REMARK    5  A    between atoms: C_22  and  C_23
REMARK                            x       y       z     vdW  Elec       q    Type
REMARK                         _______ _______ _______ _____ _____    ______ ____
ROOT
ATOM      1  C   UNL     1      -0.554   0.712   0.000  0.00  0.00    -0.000 C 
ATOM      2  C   UNL     1      -0.554   1.672   0.000  0.00  0.00    +0.000 C 
ATOM      3  C   UNL     1      -1.440   1.198   0.000  0.00  0.00    -0.000 C 
ATOM      4  C   UNL     1      -2.336   0.712   0.000  0.00  0.00    -0.000 C 
ATOM      5  C   UNL     1      -2.336  -0.328   0.000  0.00  0.00    -0.000 C 
ATOM      6  C   UNL     1      -1.440  -0.840   0.000  0.00  0.00    -0.000 C 
ATOM      7  C   UNL     1      -1.440  -1.864   0.000  0.00  0.00    -0.000 C 
ATOM      8  C   UNL     1      -2.336  -2.376   0.000  0.00  0.00    -0.004 C 
ATOM      9  C   UNL     1      -3.206  -1.864   0.000  0.00  0.00    +0.013 C 
ATOM     10  C   UNL     1      -4.091  -2.376   0.000  0.00  0.00    -0.004 C 
ATOM     11  C   UNL     1      -4.961  -1.864   0.000  0.00  0.00    -0.000 C 
ATOM     12  C   UNL     1      -4.961  -0.840   0.000  0.00  0.00    -0.000 C 
ATOM     13  C   UNL     1      -4.091  -0.328   0.000  0.00  0.00    -0.000 C 
ATOM     14  C   UNL     1      -3.206  -0.840   0.000  0.00  0.00    -0.003 C 
ATOM     15  C   UNL     1      -3.206   0.046   0.000  0.00  0.00    -0.000 C 
ATOM     16  C   UNL     1       0.389   0.995   0.000  0.00  0.00    +0.000 C 
ATOM     17  C   UNL     1       0.992   0.211   0.000  0.00  0.00    +0.000 C 
ATOM     18  C   UNL     1       0.416  -0.632   0.000  0.00  0.00    -0.000 C 
ATOM     19  C   UNL     1      -0.554  -0.339   0.000  0.00  0.00    -0.000 C 
ENDROOT
BRANCH  16  20
ATOM     20  C   UNL     1       0.683   1.955   0.000  0.00  0.00    +0.000 C 
ATOM     21  C   UNL     1       0.005   2.680   0.000  0.00  0.00    +0.000 C 
BRANCH  20  22
ATOM     22  C   UNL     1       1.659   2.184   0.000  0.00  0.00    +0.000 C 
BRANCH  22  23
ATOM     23  C   UNL     1       2.336   1.454   0.000  0.00  0.00    +0.000 C 
BRANCH  23  24
ATOM     24  C   UNL     1       3.307   1.683   0.000  0.00  0.00    +0.000 C 
BRANCH  24  25
ATOM     25  C   UNL     1       4.001   0.968   0.000  0.00  0.00    +0.000 C 
ATOM     26  C   UNL     1       4.961   1.198   0.000  0.00  0.00    +0.000 C 
ATOM     27  C   UNL     1       3.734   0.008   0.000  0.00  0.00    +0.000 C 
ENDBRANCH  24  25
ENDBRANCH  23  24
ENDBRANCH  22  23
ENDBRANCH  20  22
ENDBRANCH  16  20
TORSDOF 5
ENDMDL
MODEL      293
REMARK  Name = 16-CHLORO-5,9-DIMETHYL-14,17-DIOXO-20-(PROPAN-2-YL)PENTACYCLO[10.6.2.0^(1,10).0^(4,9).0^(13,18)]ICOSA-15,19-DIENE-5-CARBOXYLIC ACID
REMARK  2 active torsions:
REMARK  status: ('A' for Active; 'I' for Inactive)
REMARK    1  A    between atoms: C_6  and  C_22
REMARK    2  A    between atoms: C_14  and  C_16
REMARK                            x       y       z     vdW  Elec       q    Type
REMARK                         _______ _______ _______ _____ _____    ______ ____
ROOT
ATOM      1  C   UNL     1      -0.033  -0.689   0.000  0.00  0.00    +0.025 C 
ATOM      2  C   UNL     1      -0.033  -1.629   0.000  0.00  0.00    +0.004 C 
ATOM      3  C   UNL     1      -0.846  -2.107   0.000  0.00  0.00    +0.001 C 
ATOM      4  C   UNL     1      -1.659  -1.629   0.000  0.00  0.00    +0.010 C 
ATOM      5  C   UNL     1      -1.659  -0.689   0.000  0.00  0.00    +0.001 C 
ATOM      6  C   UNL     1      -1.672   0.198   0.000  0.00  0.00    +0.000 C 
ATOM      7  C   UNL     1      -2.455  -0.219   0.000  0.00  0.00    +0.000 C 
ATOM      8  C   UNL     1      -3.277  -0.689   0.000  0.00  0.00    +0.001 C 
ATOM      9  C   UNL     1      -3.277  -1.629   0.000  0.00  0.00    +0.011 C 
ATOM     10  C   UNL     1      -2.455  -2.107   0.000  0.00  0.00    +0.094 C 
ATOM     11  C   UNL     1      -3.059  -2.724   0.000  0.00  0.00    +0.011 C 
ATOM     12  C   UNL     1      -1.098   1.794   0.000  0.00  0.00    -0.035 C 
ATOM     13  C   UNL     1       0.302   2.129   0.000  0.00  0.00    -0.049 C 
ATOM     14  C   UNL     1      -0.033   1.198   0.000  0.00  0.00    +0.026 C 
ATOM     15  C   UNL     1       0.794   0.728   0.000  0.00  0.00    +0.073 C 
ATOM     16  C   UNL     1       1.598   1.198   0.000  0.00  0.00    +0.174 C 
ATOM     17  C   UNL     1       2.420   0.728   0.000  0.00  0.00    +0.052 C 
ATOM     18  C   UNL     1       2.420  -0.219   0.000  0.00  0.00    +0.095 C 
ATOM     19 CL   UNL     1       3.277  -0.720   0.000  0.00  0.00    -0.079 Cl
ATOM     20  C   UNL     1       1.598  -0.689   0.000  0.00  0.00    +0.184 C 
ATOM     21  O   UNL     1       1.598  -1.629   0.000  0.00  0.00    -0.290 OA
ATOM     22  O   UNL     1       1.598   2.137   0.000  0.00  0.00    -0.291 OA
ATOM     23  C   UNL     1      -0.846   0.728   0.000  0.00  0.00    +0.005 C 
ATOM     24  C   UNL     1      -0.846  -0.219   0.000  0.00  0.00    +0.004 C 
ATOM     25  C   UNL     1       0.794  -0.219   0.000  0.00  0.00    +0.074 C 
ENDROOT
BRANCH  10  26
ATOM     26  C   UNL     1      -1.950  -2.755   0.000  0.00  0.00    +0.364 C 
ATOM     27  O   UNL     1      -0.950  -2.755   0.000  0.00  0.00    -0.246 OA
ATOM     28  O   UNL     1      -2.485  -3.581   0.000  0.00  0.00    -0.246 OA
ENDBRANCH  10  26
BRANCH  13  29
ATOM     29  C   UNL     1       0.520   2.920   0.000  0.00  0.00    +0.018 C 
ATOM     30  C   UNL     1       1.420   3.059   0.000  0.00  0.00    +0.004 C 
ATOM     31  C   UNL     1      -0.146   3.581   0.000  0.00  0.00    +0.004 C 
ENDBRANCH  13  29
TORSDOF 2
ENDMDL
MODEL      294
REMARK  Name = 3-(ACETYLOXY)-5-HYDROXY-2-({14-HYDROXY-15-[5-(2-HYDROXYPROPAN-2-YL)-2-METHYLOXOLAN-2-YL]-7,7,12,16-TETRAMETHYL-9-[(3,4,5-TRIHYDROXYOXAN-2-YL)OXY]PENTACYCLO[9.7.0.0^(1,3).0^(3,8).0^(12,16)]OCTADECAN-6- YL}OXY)OXAN-4-YL ACETATE
REMARK  10 active torsions:
REMARK  status: ('A' for Active; 'I' for Inactive)
REMARK    1  A    between atoms: C_7  and  O_30
REMARK    2  A    between atoms: C_9  and  C_10
REMARK    3  A    between atoms: C_11  and  O_31
REMARK    4  A    between atoms: C_13  and  O_27
REMARK    5  A    between atoms: C_14  and  O_23
REMARK    6  A    between atoms: C_15  and  O_23
REMARK    7  A    between atoms: C_24  and  O_27
REMARK    8  A    between atoms: O_30  and  C_35
REMARK    9  A    between atoms: O_31  and  C_36
REMARK   10  A    between atoms: C_32  and  C_37
REMARK                            x       y       z     vdW  Elec       q    Type
REMARK                         _______ _______ _______ _____ _____    ______ ____
ROOT
ATOM      1  C   UNL     1       3.302   1.200   0.000  0.00  0.00    +0.000 C 
ATOM      2  C   UNL     1       3.302   1.930   0.000  0.00  0.00    +0.000 C 
ATOM      3  C   UNL     1       3.949   2.323   0.000  0.00  0.00    +0.000 C 
ATOM      4  C   UNL     1       4.605   1.930   0.000  0.00  0.00    +0.005 C 
ATOM      5  C   UNL     1       4.605   1.200   0.000  0.00  0.00    +0.003 C 
ATOM      6  C   UNL     1       4.605   0.471   0.000  0.00  0.00    +0.000 C 
ATOM      7  C   UNL     1       5.309   0.963   0.000  0.00  0.00    +0.033 C 
ATOM      8  C   UNL     1       5.719   1.577   0.000  0.00  0.00    +0.154 C 
ATOM      9  O   UNL     1       6.506   1.577   0.000  0.00  0.00    -0.223 OA
ATOM     10  C   UNL     1       4.605   2.815   0.000  0.00  0.00    +0.000 C 
ATOM     11  C   UNL     1       5.309   2.167   0.000  0.00  0.00    +0.055 C 
ATOM     12  C   UNL     1       2.638   1.692   0.000  0.00  0.00    +0.000 C 
ATOM     13  C   UNL     1       3.949   0.766   0.000  0.00  0.00    +0.002 C 
ATOM     14  C   UNL     1       3.949   0.062   0.000  0.00  0.00    +0.030 C 
ATOM     15  C   UNL     1       3.302  -0.332   0.000  0.00  0.00    +0.118 C 
ATOM     16  C   UNL     1       2.638   0.062   0.000  0.00  0.00    +0.030 C 
ATOM     17  C   UNL     1       1.950  -0.332   0.000  0.00  0.00    +0.027 C 
ATOM     18  C   UNL     1       1.360   0.062   0.000  0.00  0.00    +0.118 C 
ATOM     19  C   UNL     1       1.360   0.766   0.000  0.00  0.00    +0.030 C 
ATOM     20  C   UNL     1       1.950   1.200   0.000  0.00  0.00    +0.003 C 
ATOM     21  C   UNL     1       2.261  -0.979   0.000  0.00  0.00    +0.002 C 
ATOM     22  C   UNL     1       1.532  -0.979   0.000  0.00  0.00    +0.002 C 
ATOM     23  C   UNL     1       2.638   0.766   0.000  0.00  0.00    +0.002 C 
ENDROOT
BRANCH  11  24
ATOM     24  C   UNL     1       5.293   3.069   0.000  0.00  0.00    +0.095 C 
ATOM     25  C   UNL     1       6.039   2.577   0.000  0.00  0.00    +0.030 C 
ATOM     26  C   UNL     1       6.137   3.224   0.000  0.00  0.00    +0.029 C 
ATOM     27  C   UNL     1       6.137   4.052   0.000  0.00  0.00    +0.028 C 
ATOM     28  C   UNL     1       5.408   4.371   0.000  0.00  0.00    +0.163 C 
ATOM     29  O   UNL     1       4.859   3.757   0.000  0.00  0.00    -0.365 OA
BRANCH  28  30
ATOM     30  C   UNL     1       5.031   5.256   0.000  0.00  0.00    +0.146 C 
ATOM     31  C   UNL     1       4.130   4.896   0.000  0.00  0.00    +0.035 C 
ATOM     32  C   UNL     1       5.916   5.666   0.000  0.00  0.00    +0.035 C 
ATOM     33  O   UNL     1       4.678   6.174   0.000  0.00  0.00    -0.224 OA
ENDBRANCH  28  30
ENDBRANCH  11  24
BRANCH  18  34
ATOM     34  O   UNL     1      -1.319  -1.102   0.000  0.00  0.00    -0.330 OA
BRANCH  34  35
ATOM     35  C   UNL     1      -1.319  -3.085   0.000  0.00  0.00    +0.281 C 
ATOM     36  O   UNL     1      -1.950  -2.241   0.000  0.00  0.00    -0.325 OA
ATOM     37  C   UNL     1      -3.130  -2.241   0.000  0.00  0.00    +0.182 C 
ATOM     38  C   UNL     1      -3.777  -3.085   0.000  0.00  0.00    +0.225 C 
ATOM     39  C   UNL     1      -3.130  -3.855   0.000  0.00  0.00    +0.246 C 
ATOM     40  O   UNL     1      -3.777  -4.011   0.000  0.00  0.00    -0.216 OA
ATOM     41  C   UNL     1      -1.950  -3.855   0.000  0.00  0.00    +0.267 C 
BRANCH  39  42
ATOM     42  O   UNL     1      -3.130  -3.126   0.000  0.00  0.00    -0.446 OA
BRANCH  42  43
ATOM     43  C   UNL     1      -5.588  -1.848   0.000  0.00  0.00    +0.318 C 
ATOM     44  C   UNL     1      -5.588  -0.922   0.000  0.00  0.00    +0.121 C 
ATOM     45  O   UNL     1      -6.506  -2.241   0.000  0.00  0.00    -0.250 OA
ENDBRANCH  42  43
ENDBRANCH  39  42
BRANCH  41  46
ATOM     46  O   UNL     1      -1.950  -4.740   0.000  0.00  0.00    -0.443 OA
BRANCH  46  47
ATOM     47  C   UNL     1      -1.098  -5.232   0.000  0.00  0.00    +0.318 C 
ATOM     48  C   UNL     1      -1.123  -6.174   0.000  0.00  0.00    +0.121 C 
ATOM     49  O   UNL     1      -0.140  -4.838   0.000  0.00  0.00    -0.250 OA
ENDBRANCH  46  47
ENDBRANCH  41  46
ENDBRANCH  34  35
ENDBRANCH  18  34
BRANCH  15  50
ATOM     50  O   UNL     1       3.302  -2.003   0.000  0.00  0.00    -0.331 OA
BRANCH  50  51
ATOM     51  C   UNL     1       3.286  -4.011   0.000  0.00  0.00    +0.269 C 
ATOM     52  O   UNL     1       2.540  -3.085   0.000  0.00  0.00    -0.326 OA
ATOM     53  C   UNL     1       1.278  -3.085   0.000  0.00  0.00    +0.180 C 
ATOM     54  C   UNL     1       0.532  -4.011   0.000  0.00  0.00    +0.214 C 
ATOM     55  C   UNL     1       1.278  -4.994   0.000  0.00  0.00    +0.220 C 
ATOM     56  O   UNL     1       1.278  -4.052   0.000  0.00  0.00    -0.217 OA
ATOM     57  O   UNL     1       0.574  -5.191   0.000  0.00  0.00    -0.218 OA
ATOM     58  C   UNL     1       2.540  -4.994   0.000  0.00  0.00    +0.241 C 
ATOM     59  O   UNL     1       2.540  -5.756   0.000  0.00  0.00    -0.215 OA
ENDBRANCH  50  51
ENDBRANCH  15  50
TORSDOF 10
ENDMDL
MODEL      295
REMARK  Name = 3a,7,8-trihydroxy-9a,11a-dimethyl-1-(2,3,6-trihydroxy-6-methylheptan-2-yl)-1H,2H,3H,3aH,5H,5aH,6H,7H,8H,9H,9aH,9bH,10H,11H,11aH-cyclopenta[a]phenanthren-5-one
REMARK  5 active torsions:
REMARK  status: ('A' for Active; 'I' for Inactive)
REMARK    1  A    between atoms: C_8  and  C_10
REMARK    2  A    between atoms: C_10  and  C_20
REMARK    3  A    between atoms: C_20  and  C_23
REMARK    4  A    between atoms: C_22  and  C_27
REMARK    5  A    between atoms: C_23  and  C_27
REMARK                            x       y       z     vdW  Elec       q    Type
REMARK                         _______ _______ _______ _____ _____    ______ ____
ROOT
ATOM      1  C   UNL     1      -0.659  -0.596   0.000  0.00  0.00    -0.015 C 
ATOM      2  C   UNL     1      -0.659  -1.611   0.000  0.00  0.00    +0.031 C 
ATOM      3  C   UNL     1      -1.538  -2.120   0.000  0.00  0.00    +0.172 C 
ATOM      4  O   UNL     1      -1.538  -3.118   0.000  0.00  0.00    -0.291 OA
ATOM      5  C   UNL     1      -2.414  -1.611   0.000  0.00  0.00    +0.065 C 
ATOM      6  C   UNL     1      -2.414  -0.596   0.000  0.00  0.00    +0.013 C 
ATOM      7  C   UNL     1      -2.414   0.293   0.000  0.00  0.00    +0.001 C 
ATOM      8  C   UNL     1      -3.289  -0.086   0.000  0.00  0.00    +0.036 C 
ATOM      9  C   UNL     1      -4.169  -0.596   0.000  0.00  0.00    +0.182 C 
ATOM     10  C   UNL     1      -4.169  -1.611   0.000  0.00  0.00    +0.183 C 
ATOM     11  O   UNL     1      -5.035  -2.111   0.000  0.00  0.00    -0.220 OA
ATOM     12  O   UNL     1      -5.035  -0.095   0.000  0.00  0.00    -0.220 OA
ATOM     13  C   UNL     1      -3.289  -2.120   0.000  0.00  0.00    +0.043 C 
ATOM     14  C   UNL     1      -1.538  -0.086   0.000  0.00  0.00    +0.021 C 
ATOM     15  C   UNL     1      -1.538   0.934   0.000  0.00  0.00    +0.004 C 
ATOM     16  C   UNL     1      -0.659   1.439   0.000  0.00  0.00    +0.003 C 
ATOM     17  C   UNL     1       0.216   0.934   0.000  0.00  0.00    +0.032 C 
ATOM     18  C   UNL     1       0.230   1.895   0.000  0.00  0.00    +0.003 C 
ATOM     19  C   UNL     1       1.159   1.223   0.000  0.00  0.00    +0.033 C 
ATOM     20  C   UNL     1       1.764   0.456   0.000  0.00  0.00    +0.005 C 
ATOM     21  C   UNL     1       1.182  -0.388   0.000  0.00  0.00    +0.034 C 
ATOM     22  C   UNL     1       0.216  -0.095   0.000  0.00  0.00    +0.142 C 
ATOM     23  O   UNL     1       0.216  -0.997   0.000  0.00  0.00    -0.222 OA
ENDROOT
BRANCH  19  24
ATOM     24  C   UNL     1       1.453   2.179   0.000  0.00  0.00    +0.154 C 
ATOM     25  C   UNL     1       0.487   2.481   0.000  0.00  0.00    +0.036 C 
ATOM     26  O   UNL     1       1.746   3.118   0.000  0.00  0.00    -0.223 OA
BRANCH  24  27
ATOM     27  C   UNL     1       2.414   1.872   0.000  0.00  0.00    +0.180 C 
ATOM     28  O   UNL     1       3.154   2.558   0.000  0.00  0.00    -0.221 OA
BRANCH  27  29
ATOM     29  C   UNL     1       2.630   0.898   0.000  0.00  0.00    +0.038 C 
BRANCH  29  30
ATOM     30  C   UNL     1       3.573   0.596   0.000  0.00  0.00    +0.033 C 
BRANCH  30  31
ATOM     31  C   UNL     1       4.309   1.268   0.000  0.00  0.00    +0.127 C 
ATOM     32  C   UNL     1       4.994   0.519   0.000  0.00  0.00    +0.033 C 
ATOM     33  C   UNL     1       3.627   2.017   0.000  0.00  0.00    +0.033 C 
ATOM     34  O   UNL     1       5.035   1.927   0.000  0.00  0.00    -0.226 OA
ENDBRANCH  30  31
ENDBRANCH  29  30
ENDBRANCH  27  29
ENDBRANCH  24  27
ENDBRANCH  19  24
TORSDOF 5
ENDMDL
MODEL      296
REMARK  Name = (6aR,6bR,12aR)-2,2,6a,6b,9,9,12a-heptamethylicosahydro-2H-1,4a-(epoxymethano)picen-10-yl acetate
REMARK  2 active torsions:
REMARK  status: ('A' for Active; 'I' for Inactive)
REMARK    1  A    between atoms: C_12  and  O_20
REMARK    2  A    between atoms: O_20  and  C_22
REMARK                            x       y       z     vdW  Elec       q    Type
REMARK                         _______ _______ _______ _____ _____    ______ ____
ROOT
ATOM      1  C   UNL     1       1.571  -0.022   0.000  0.00  0.00    +0.000 C 
ATOM      2  C   UNL     1       1.571  -0.871   0.000  0.00  0.00    +0.000 C 
ATOM      3  C   UNL     1       2.441  -0.503   0.000  0.00  0.00    +0.000 C 
ATOM      4  C   UNL     1       3.304   0.000   0.000  0.00  0.00    +0.002 C 
ATOM      5  C   UNL     1       3.304   0.989   0.000  0.00  0.00    +0.030 C 
ATOM      6  C   UNL     1       2.441   1.492   0.000  0.00  0.00    +0.030 C 
ATOM      7  C   UNL     1       2.450   2.468   0.000  0.00  0.00    +0.115 C 
ATOM      8  C   UNL     1       3.290   2.962   0.000  0.00  0.00    +0.025 C 
ATOM      9  C   UNL     1       4.152   2.477   0.000  0.00  0.00    +0.002 C 
ATOM     10  C   UNL     1       3.868   3.601   0.000  0.00  0.00    +0.002 C 
ATOM     11  C   UNL     1       2.494   3.487   0.000  0.00  0.00    +0.002 C 
ATOM     12  O   UNL     1       3.618   1.943   0.000  0.00  0.00    -0.356 OA
ATOM     13  C   UNL     1       4.152   1.492   0.000  0.00  0.00    +0.003 C 
ATOM     14  C   UNL     1       4.459   0.713   0.000  0.00  0.00    +0.142 C 
ATOM     15  C   UNL     1       1.571   0.998   0.000  0.00  0.00    +0.002 C 
ATOM     16  C   UNL     1       0.687   1.501   0.000  0.00  0.00    +0.000 C 
ATOM     17  C   UNL     1      -0.175   0.998   0.000  0.00  0.00    +0.000 C 
ATOM     18  C   UNL     1      -0.175   0.000   0.000  0.00  0.00    +0.000 C 
ATOM     19  C   UNL     1      -1.046  -0.525   0.000  0.00  0.00    +0.000 C 
ATOM     20  C   UNL     1      -1.046  -1.523   0.000  0.00  0.00    +0.003 C 
ATOM     21  C   UNL     1      -1.917  -2.026   0.000  0.00  0.00    +0.037 C 
ATOM     22  C   UNL     1      -1.190  -2.446   0.000  0.00  0.00    +0.004 C 
ATOM     23  C   UNL     1      -2.643  -2.477   0.000  0.00  0.00    +0.004 C 
ATOM     24  C   UNL     1      -2.800  -1.523   0.000  0.00  0.00    +0.169 C 
ATOM     25  C   UNL     1      -2.800  -0.525   0.000  0.00  0.00    +0.044 C 
ATOM     26  C   UNL     1      -0.175  -2.026   0.000  0.00  0.00    +0.000 C 
ATOM     27  C   UNL     1       0.687  -1.523   0.000  0.00  0.00    +0.000 C 
ATOM     28  C   UNL     1      -1.046   0.359   0.000  0.00  0.00    +0.000 C 
ATOM     29  C   UNL     1      -1.917   0.000   0.000  0.00  0.00    +0.004 C 
ATOM     30  C   UNL     1       0.687  -0.525   0.000  0.00  0.00    +0.000 C 
ATOM     31  C   UNL     1       0.709   0.324   0.000  0.00  0.00    +0.000 C 
ENDROOT
BRANCH  24  32
ATOM     32  O   UNL     1      -3.649  -2.026   0.000  0.00  0.00    -0.452 OA
BRANCH  32  33
ATOM     33  C   UNL     1      -3.649  -3.002   0.000  0.00  0.00    +0.317 C 
ATOM     34  C   UNL     1      -4.459  -3.465   0.000  0.00  0.00    +0.121 C 
ATOM     35  O   UNL     1      -2.818  -3.601   0.000  0.00  0.00    -0.250 OA
ENDBRANCH  32  33
ENDBRANCH  24  32
TORSDOF 2
ENDMDL
MODEL      297
REMARK  Name = 1H-1,2,3-benzotriazol-1-yl 5-({6-[(1H-1,2,3-benzotriazol-1-yloxy)carbonyl]-3,4,5-trihydroxyoxan-2-yl}oxy)-6-({11-[(1H-1,2,3-benzotriazol-1-yloxy)carbonyl]-4,4,6a,6b,8a,11,14b-heptamethyl-14-oxo-1,2,3, 4,4a,5,6,6a,6b,7,8,8a,9,10,11,12,12a,14,14a,14b-icosahydropicen-3-yl}oxy)-3,4-dihydroxyoxane-2-carboxylate
REMARK  13 active torsions:
REMARK  status: ('A' for Active; 'I' for Inactive)
REMARK    1  A    between atoms: N_1  and  O_34
REMARK    2  A    between atoms: N_2  and  O_33
REMARK    3  A    between atoms: N_3  and  O_39
REMARK    4  A    between atoms: C_7  and  C_17
REMARK    5  A    between atoms: C_8  and  C_18
REMARK    6  A    between atoms: C_10  and  O_38
REMARK    7  A    between atoms: C_15  and  O_38
REMARK    8  A    between atoms: C_16  and  O_45
REMARK    9  A    between atoms: C_17  and  O_34
REMARK   10  A    between atoms: C_18  and  O_33
REMARK   11  A    between atoms: O_39  and  C_41
REMARK   12  A    between atoms: C_41  and  C_42
REMARK   13  A    between atoms: O_45  and  C_49
REMARK                            x       y       z     vdW  Elec       q    Type
REMARK                         _______ _______ _______ _____ _____    ______ ____
ROOT
ATOM      1  O   UNL     1      -2.644  -1.459   0.000  0.00  0.00    -0.331 OA
ENDROOT
BRANCH   1   2
ATOM      2  C   UNL     1      -1.785  -0.972   0.000  0.00  0.00    +0.118 C 
ATOM      3  C   UNL     1      -1.785   0.015   0.000  0.00  0.00    +0.030 C 
ATOM      4  C   UNL     1      -0.980   0.456   0.000  0.00  0.00    +0.003 C 
ATOM      5  C   UNL     1      -0.160   0.015   0.000  0.00  0.00    +0.007 C 
ATOM      6  C   UNL     1      -0.160  -0.972   0.000  0.00  0.00    +0.003 C 
ATOM      7  C   UNL     1       0.600  -1.459   0.000  0.00  0.00    +0.000 C 
ATOM      8  C   UNL     1       1.390  -0.972   0.000  0.00  0.00    +0.001 C 
ATOM      9  C   UNL     1       1.390   0.015   0.000  0.00  0.00    +0.010 C 
ATOM     10  C   UNL     1       1.390   0.889   0.000  0.00  0.00    +0.001 C 
ATOM     11  C   UNL     1       2.150   0.456   0.000  0.00  0.00    +0.016 C 
ATOM     12  C   UNL     1       2.150   1.345   0.000  0.00  0.00    -0.042 C 
ATOM     13  C   UNL     1       3.122   2.036   0.000  0.00  0.00    +0.019 C 
ATOM     14  C   UNL     1       4.087   1.474   0.000  0.00  0.00    +0.003 C 
ATOM     15  C   UNL     1       4.087   0.342   0.000  0.00  0.00    +0.001 C 
ATOM     16  C   UNL     1       5.158   0.820   0.000  0.00  0.00    +0.000 C 
ATOM     17  C   UNL     1       5.052   2.036   0.000  0.00  0.00    +0.001 C 
ATOM     18  C   UNL     1       5.052   3.130   0.000  0.00  0.00    +0.011 C 
ATOM     19  C   UNL     1       4.087   3.700   0.000  0.00  0.00    +0.092 C 
ATOM     20  C   UNL     1       3.122   4.300   0.000  0.00  0.00    +0.011 C 
ATOM     21  C   UNL     1       3.122   3.130   0.000  0.00  0.00    +0.015 C 
ATOM     22  C   UNL     1       1.390   1.823   0.000  0.00  0.00    +0.029 C 
ATOM     23  C   UNL     1       0.600   1.345   0.000  0.00  0.00    +0.172 C 
ATOM     24  O   UNL     1      -0.365   1.891   0.000  0.00  0.00    -0.291 OA
ATOM     25  C   UNL     1       2.172  -0.608   0.000  0.00  0.00    +0.004 C 
ATOM     26  C   UNL     1       3.122  -0.205   0.000  0.00  0.00    +0.004 C 
ATOM     27  C   UNL     1      -0.160   0.942   0.000  0.00  0.00    +0.000 C 
ATOM     28  C   UNL     1       0.600   0.456   0.000  0.00  0.00    +0.062 C 
ATOM     29  C   UNL     1      -0.980  -1.459   0.000  0.00  0.00    +0.025 C 
ATOM     30  C   UNL     1      -1.565  -2.575   0.000  0.00  0.00    +0.002 C 
ATOM     31  C   UNL     1      -0.311  -2.370   0.000  0.00  0.00    +0.002 C 
BRANCH  19  32
ATOM     32  C   UNL     1       5.013   4.338   0.000  0.00  0.00    +0.344 C 
ATOM     33  O   UNL     1       5.013   5.522   0.000  0.00  0.00    -0.248 OA
BRANCH  32  34
ATOM     34  O   UNL     1       6.016   3.768   0.000  0.00  0.00    -0.316 OA
BRANCH  34  35
ATOM     35  N   UNL     1       6.875   4.262   0.000  0.00  0.00    -0.067 N 
ATOM     36  C   UNL     1       6.951   5.287   0.000  0.00  0.00    +0.140 A 
ATOM     37  C   UNL     1       6.328   6.047   0.000  0.00  0.00    +0.024 A 
ATOM     38  C   UNL     1       6.692   7.011   0.000  0.00  0.00    +0.002 A 
ATOM     39  C   UNL     1       7.657   7.171   0.000  0.00  0.00    +0.002 A 
ATOM     40  C   UNL     1       8.318   6.396   0.000  0.00  0.00    +0.023 A 
ATOM     41  C   UNL     1       7.968   5.470   0.000  0.00  0.00    +0.125 A 
ATOM     42  N   UNL     1       8.440   4.573   0.000  0.00  0.00    -0.126 NA
ATOM     43  N   UNL     1       7.771   3.829   0.000  0.00  0.00    -0.028 NA
ENDBRANCH  34  35
ENDBRANCH  32  34
ENDBRANCH  19  32
ENDBRANCH   1   2
BRANCH   1  50
ATOM     44  C   UNL     1      -4.520  -1.808   0.000  0.00  0.00    +0.251 C 
ATOM     45  C   UNL     1      -5.173  -2.644   0.000  0.00  0.00    +0.223 C 
ATOM     46  O   UNL     1      -5.173  -3.373   0.000  0.00  0.00    -0.217 OA
ATOM     47  C   UNL     1      -4.520  -3.434   0.000  0.00  0.00    +0.217 C 
ATOM     48  O   UNL     1      -4.520  -2.667   0.000  0.00  0.00    -0.217 OA
ATOM     49  C   UNL     1      -3.297  -3.434   0.000  0.00  0.00    +0.207 C 
ATOM     50  C   UNL     1      -2.644  -2.644   0.000  0.00  0.00    +0.267 C 
ATOM     51  O   UNL     1      -3.297  -1.808   0.000  0.00  0.00    -0.317 OA
BRANCH  44  52
ATOM     52  C   UNL     1      -4.520  -1.299   0.000  0.00  0.00    +0.374 C 
ATOM     53  O   UNL     1      -3.897  -0.935   0.000  0.00  0.00    -0.245 OA
BRANCH  52  54
ATOM     54  O   UNL     1      -5.029  -1.040   0.000  0.00  0.00    -0.313 OA
BRANCH  54  55
ATOM     55  N   UNL     1      -4.687  -0.129   0.000  0.00  0.00    -0.067 N 
ATOM     56  C   UNL     1      -5.234   0.706   0.000  0.00  0.00    +0.140 A 
ATOM     57  C   UNL     1      -6.199   0.927   0.000  0.00  0.00    +0.024 A 
ATOM     58  C   UNL     1      -6.510   1.914   0.000  0.00  0.00    +0.002 A 
ATOM     59  C   UNL     1      -5.834   2.643   0.000  0.00  0.00    +0.002 A 
ATOM     60  C   UNL     1      -4.847   2.423   0.000  0.00  0.00    +0.023 A 
ATOM     61  C   UNL     1      -4.558   1.474   0.000  0.00  0.00    +0.125 A 
ATOM     62  N   UNL     1      -3.646   1.071   0.000  0.00  0.00    -0.126 NA
ATOM     63  N   UNL     1      -3.715   0.068   0.000  0.00  0.00    -0.028 NA
ENDBRANCH  54  55
ENDBRANCH  52  54
ENDBRANCH  44  52
BRANCH  49  64
ATOM     64  O   UNL     1      -3.297  -4.399   0.000  0.00  0.00    -0.323 OA
BRANCH  64  65
ATOM     65  C   UNL     1      -3.297  -5.599   0.000  0.00  0.00    +0.270 C 
ATOM     66  C   UNL     1      -3.920  -6.404   0.000  0.00  0.00    +0.241 C 
ATOM     67  O   UNL     1      -3.920  -7.171   0.000  0.00  0.00    -0.215 OA
ATOM     68  C   UNL     1      -5.143  -6.404   0.000  0.00  0.00    +0.220 C 
ATOM     69  O   UNL     1      -5.143  -5.621   0.000  0.00  0.00    -0.217 OA
ATOM     70  C   UNL     1      -5.811  -5.599   0.000  0.00  0.00    +0.223 C 
ATOM     71  C   UNL     1      -5.143  -4.740   0.000  0.00  0.00    +0.251 C 
ATOM     72  O   UNL     1      -5.811  -6.548   0.000  0.00  0.00    -0.217 OA
ATOM     73  O   UNL     1      -3.920  -4.740   0.000  0.00  0.00    -0.317 OA
BRANCH  71  74
ATOM     74  C   UNL     1      -5.143  -4.178   0.000  0.00  0.00    +0.374 C 
ATOM     75  O   UNL     1      -4.687  -3.866   0.000  0.00  0.00    -0.245 OA
BRANCH  74  76
ATOM     76  O   UNL     1      -6.016  -3.684   0.000  0.00  0.00    -0.313 OA
BRANCH  76  77
ATOM     77  N   UNL     1      -6.875  -4.194   0.000  0.00  0.00    -0.067 N 
ATOM     78  C   UNL     1      -6.943  -5.219   0.000  0.00  0.00    +0.140 A 
ATOM     79  C   UNL     1      -6.328  -5.986   0.000  0.00  0.00    +0.024 A 
ATOM     80  C   UNL     1      -6.670  -6.951   0.000  0.00  0.00    +0.002 A 
ATOM     81  C   UNL     1      -7.657  -7.133   0.000  0.00  0.00    +0.002 A 
ATOM     82  C   UNL     1      -8.311  -6.328   0.000  0.00  0.00    +0.023 A 
ATOM     83  C   UNL     1      -7.969  -5.401   0.000  0.00  0.00    +0.125 A 
ATOM     84  N   UNL     1      -8.440  -4.505   0.000  0.00  0.00    -0.126 NA
ATOM     85  N   UNL     1      -7.764  -3.760   0.000  0.00  0.00    -0.028 NA
ENDBRANCH  76  77
ENDBRANCH  74  76
ENDBRANCH  71  74
ENDBRANCH  64  65
ENDBRANCH  49  64
ENDBRANCH   1  50
TORSDOF 13
ENDMDL
MODEL      298
REMARK  Name = methyl 10-hydroxy-2,4a,6a,6b,9,9,12a-heptamethyl-1,2,3,4,4a,5,6,6a,6b,7,8,8a,9,10,11,12,12a,12b,13,14b-icosahydropicene-2-carboxylate
REMARK  2 active torsions:
REMARK  status: ('A' for Active; 'I' for Inactive)
REMARK    1  A    between atoms: C_10  and  C_13
REMARK    2  A    between atoms: C_13  and  O_28
REMARK                            x       y       z     vdW  Elec       q    Type
REMARK                         _______ _______ _______ _____ _____    ______ ____
ROOT
ATOM      1  C   UNL     1       0.518  -0.831   0.000  0.00  0.00    +0.015 C 
ATOM      2  C   UNL     1       0.518  -1.797   0.000  0.00  0.00    +0.004 C 
ATOM      3  C   UNL     1       1.374  -1.298   0.000  0.00  0.00    +0.004 C 
ATOM      4  C   UNL     1       2.239  -0.812   0.000  0.00  0.00    +0.000 C 
ATOM      5  C   UNL     1       2.239   0.187   0.000  0.00  0.00    -0.000 C 
ATOM      6  C   UNL     1       1.374   0.678   0.000  0.00  0.00    +0.032 C 
ATOM      7  C   UNL     1       1.360   1.686   0.000  0.00  0.00    +0.010 C 
ATOM      8  C   UNL     1       2.225   2.200   0.000  0.00  0.00    +0.090 C 
ATOM      9  C   UNL     1       3.095   1.709   0.000  0.00  0.00    +0.011 C 
ATOM     10  C   UNL     1       1.351   2.676   0.000  0.00  0.00    +0.011 C 
ATOM     11  C   UNL     1       3.137  -0.354   0.000  0.00  0.00    +0.000 C 
ATOM     12  C   UNL     1       3.095   0.701   0.000  0.00  0.00    +0.001 C 
ATOM     13  C   UNL     1      -0.329  -1.353   0.000  0.00  0.00    +0.003 C 
ATOM     14  C   UNL     1      -0.338  -0.456   0.000  0.00  0.00    +0.000 C 
ATOM     15  C   UNL     1      -0.329  -2.297   0.000  0.00  0.00    +0.000 C 
ATOM     16  C   UNL     1      -1.194  -2.820   0.000  0.00  0.00    +0.000 C 
ATOM     17  C   UNL     1      -2.059  -2.297   0.000  0.00  0.00    +0.002 C 
ATOM     18  C   UNL     1      -2.059  -1.353   0.000  0.00  0.00    +0.000 C 
ATOM     19  C   UNL     1      -2.059  -0.345   0.000  0.00  0.00    +0.000 C 
ATOM     20  C   UNL     1      -2.924  -0.831   0.000  0.00  0.00    +0.003 C 
ATOM     21  C   UNL     1      -3.780  -1.353   0.000  0.00  0.00    +0.033 C 
ATOM     22  C   UNL     1      -3.780  -2.297   0.000  0.00  0.00    +0.152 C 
ATOM     23  O   UNL     1      -4.802  -2.829   0.000  0.00  0.00    -0.223 OA
ATOM     24  C   UNL     1      -2.924  -2.829   0.000  0.00  0.00    +0.028 C 
ATOM     25  C   UNL     1      -2.401  -3.685   0.000  0.00  0.00    +0.003 C 
ATOM     26  C   UNL     1      -3.881  -3.463   0.000  0.00  0.00    +0.003 C 
ATOM     27  C   UNL     1      -1.194  -0.831   0.000  0.00  0.00    +0.005 C 
ATOM     28  C   UNL     1      -1.194   0.169   0.000  0.00  0.00    +0.025 C 
ATOM     29  C   UNL     1      -0.370   0.654   0.000  0.00  0.00    -0.035 C 
ATOM     30  C   UNL     1       0.518   0.187   0.000  0.00  0.00    -0.053 C 
ENDROOT
BRANCH   8  31
ATOM     31  C   UNL     1       3.081   2.686   0.000  0.00  0.00    +0.316 C 
ATOM     32  O   UNL     1       3.058   3.685   0.000  0.00  0.00    -0.250 OA
BRANCH  31  33
ATOM     33  O   UNL     1       3.969   2.232   0.000  0.00  0.00    -0.444 OA
ATOM     34  C   UNL     1       4.802   2.764   0.000  0.00  0.00    +0.256 C 
ENDBRANCH  31  33
ENDBRANCH   8  31
TORSDOF 2
ENDMDL
MODEL      299
REMARK  Name = 5a,5b,8,8,11a-pentamethyl-1-(prop-1-en-2-yl)-3a-[(pyridine-4-carbonyloxy)methyl]-icosahydro-1H-cyclopenta[a]chrysen-9-yl pyridine-4-carboxylate
REMARK  8 active torsions:
REMARK  status: ('A' for Active; 'I' for Inactive)
REMARK    1  A    between atoms: C_9  and  C_26
REMARK    2  A    between atoms: C_10  and  C_21
REMARK    3  A    between atoms: C_11  and  O_13
REMARK    4  A    between atoms: C_11  and  C_29
REMARK    5  A    between atoms: C_12  and  O_13
REMARK    6  A    between atoms: C_15  and  O_23
REMARK    7  A    between atoms: C_15  and  C_33
REMARK    8  A    between atoms: O_23  and  C_26
REMARK                            x       y       z     vdW  Elec       q    Type
REMARK                         _______ _______ _______ _____ _____    ______ ____
ROOT
ATOM      1  C   UNL     1       1.792  -0.458   0.000  0.00  0.00    +0.000 C 
ATOM      2  C   UNL     1       1.792  -1.417   0.000  0.00  0.00    +0.000 C 
ATOM      3  C   UNL     1       2.646  -0.913   0.000  0.00  0.00    +0.000 C 
ATOM      4  C   UNL     1       3.519  -0.427   0.000  0.00  0.00    +0.004 C 
ATOM      5  C   UNL     1       3.519   0.575   0.000  0.00  0.00    +0.041 C 
ATOM      6  C   UNL     1       2.646   1.079   0.000  0.00  0.00    +0.007 C 
ATOM      7  C   UNL     1       2.886   2.081   0.000  0.00  0.00    +0.018 C 
ATOM      8  C   UNL     1       3.858   2.167   0.000  0.00  0.00    +0.004 C 
ATOM      9  C   UNL     1       4.288   1.257   0.000  0.00  0.00    +0.004 C 
ATOM     10  C   UNL     1       1.792   0.575   0.000  0.00  0.00    +0.000 C 
ATOM     11  C   UNL     1       0.907   1.060   0.000  0.00  0.00    +0.000 C 
ATOM     12  C   UNL     1       0.083   0.544   0.000  0.00  0.00    +0.000 C 
ATOM     13  C   UNL     1       0.083  -0.458   0.000  0.00  0.00    +0.000 C 
ATOM     14  C   UNL     1      -0.790  -0.956   0.000  0.00  0.00    +0.000 C 
ATOM     15  C   UNL     1      -0.790  -1.915   0.000  0.00  0.00    +0.003 C 
ATOM     16  C   UNL     1      -1.645  -2.450   0.000  0.00  0.00    +0.037 C 
ATOM     17  C   UNL     1      -1.128  -3.292   0.000  0.00  0.00    +0.004 C 
ATOM     18  C   UNL     1      -2.603  -3.071   0.000  0.00  0.00    +0.004 C 
ATOM     19  C   UNL     1      -2.517  -1.915   0.000  0.00  0.00    +0.169 C 
ATOM     20  C   UNL     1      -2.517  -0.956   0.000  0.00  0.00    +0.044 C 
ATOM     21  C   UNL     1       0.083  -2.419   0.000  0.00  0.00    +0.000 C 
ATOM     22  C   UNL     1       0.950  -1.915   0.000  0.00  0.00    +0.000 C 
ATOM     23  C   UNL     1      -0.790   0.046   0.000  0.00  0.00    +0.000 C 
ATOM     24  C   UNL     1      -1.645  -0.458   0.000  0.00  0.00    +0.004 C 
ATOM     25  C   UNL     1       0.950  -0.956   0.000  0.00  0.00    +0.000 C 
ATOM     26  C   UNL     1       0.938  -0.058   0.000  0.00  0.00    +0.000 C 
ENDROOT
BRANCH   7  27
ATOM     27  C   UNL     1       2.235   2.818   0.000  0.00  0.00    -0.044 C 
ATOM     28  C   UNL     1       1.263   2.659   0.000  0.00  0.00    +0.026 C 
ATOM     29  C   UNL     1       2.573   3.747   0.000  0.00  0.00    -0.009 C 
ENDBRANCH   7  27
BRANCH   5  30
ATOM     30  C   UNL     1       4.417   0.046   0.000  0.00  0.00    +0.209 C 
BRANCH  30  31
ATOM     31  O   UNL     1       5.302   0.501   0.000  0.00  0.00    -0.445 OA
BRANCH  31  32
ATOM     32  C   UNL     1       6.132   0.003   0.000  0.00  0.00    +0.341 C 
ATOM     33  O   UNL     1       6.999   0.470   0.000  0.00  0.00    -0.245 OA
BRANCH  32  34
ATOM     34  C   UNL     1       6.101  -1.060   0.000  0.00  0.00    +0.079 A 
ATOM     35  C   UNL     1       6.944  -1.577   0.000  0.00  0.00    +0.027 A 
ATOM     36  C   UNL     1       6.913  -2.579   0.000  0.00  0.00    +0.099 A 
ATOM     37  N   UNL     1       6.028  -3.052   0.000  0.00  0.00    -0.242 NA
ATOM     38  C   UNL     1       5.155  -2.523   0.000  0.00  0.00    +0.099 A 
ATOM     39  C   UNL     1       5.198  -1.534   0.000  0.00  0.00    +0.027 A 
ENDBRANCH  32  34
ENDBRANCH  31  32
ENDBRANCH  30  31
ENDBRANCH   5  30
BRANCH  19  40
ATOM     40  O   UNL     1      -3.532  -2.450   0.000  0.00  0.00    -0.449 OA
BRANCH  40  41
ATOM     41  C   UNL     1      -4.362  -1.903   0.000  0.00  0.00    +0.341 C 
ATOM     42  O   UNL     1      -4.362  -0.913   0.000  0.00  0.00    -0.245 OA
BRANCH  41  43
ATOM     43  C   UNL     1      -5.290  -2.284   0.000  0.00  0.00    +0.079 A 
ATOM     44  C   UNL     1      -6.144  -1.786   0.000  0.00  0.00    +0.027 A 
ATOM     45  C   UNL     1      -6.999  -2.271   0.000  0.00  0.00    +0.099 A 
ATOM     46  N   UNL     1      -6.999  -3.261   0.000  0.00  0.00    -0.242 NA
ATOM     47  C   UNL     1      -6.144  -3.747   0.000  0.00  0.00    +0.099 A 
ATOM     48  C   UNL     1      -5.290  -3.292   0.000  0.00  0.00    +0.027 A 
ENDBRANCH  41  43
ENDBRANCH  40  41
ENDBRANCH  19  40
TORSDOF 8
ENDMDL
MODEL      300
REMARK  Name = (E)-N-{[(9E)-9-(hydroxyimino)-5a,5b,8,8,11a-pentamethyl-1-(prop-1-en-2-yl)-icosahydro-1H-cyclopenta[a]chrysen-3a-yl]methylidene}hydroxylamine
REMARK  2 active torsions:
REMARK  status: ('A' for Active; 'I' for Inactive)
REMARK    1  A    between atoms: C_9  and  C_25
REMARK    2  A    between atoms: C_10  and  C_18
REMARK                            x       y       z     vdW  Elec       q    Type
REMARK                         _______ _______ _______ _____ _____    ______ ____
ROOT
ATOM      1  C   UNL     1       1.303  -0.784   0.000  0.00  0.00    +0.000 C 
ATOM      2  C   UNL     1       1.303  -1.719   0.000  0.00  0.00    +0.000 C 
ATOM      3  C   UNL     1       2.174  -1.288   0.000  0.00  0.00    +0.000 C 
ATOM      4  C   UNL     1       3.067  -0.784   0.000  0.00  0.00    +0.006 C 
ATOM      5  C   UNL     1       3.067   0.241   0.000  0.00  0.00    +0.040 C 
ATOM      6  C   UNL     1       2.174   0.733   0.000  0.00  0.00    +0.009 C 
ATOM      7  C   UNL     1       2.409   1.736   0.000  0.00  0.00    +0.019 C 
ATOM      8  C   UNL     1       3.395   1.830   0.000  0.00  0.00    +0.004 C 
ATOM      9  C   UNL     1       3.793   0.878   0.000  0.00  0.00    +0.006 C 
ATOM     10  C   UNL     1       1.303   0.241   0.000  0.00  0.00    +0.001 C 
ATOM     11  C   UNL     1       0.423   0.754   0.000  0.00  0.00    +0.000 C 
ATOM     12  C   UNL     1      -0.461   0.241   0.000  0.00  0.00    +0.000 C 
ATOM     13  C   UNL     1      -0.461  -0.784   0.000  0.00  0.00    +0.000 C 
ATOM     14  C   UNL     1      -1.333  -1.288   0.000  0.00  0.00    +0.001 C 
ATOM     15  C   UNL     1      -1.333  -2.321   0.000  0.00  0.00    +0.005 C 
ATOM     16  C   UNL     1      -2.225  -2.825   0.000  0.00  0.00    +0.035 C 
ATOM     17  C   UNL     1      -1.559  -3.440   0.000  0.00  0.00    +0.006 C 
ATOM     18  C   UNL     1      -2.891  -3.440   0.000  0.00  0.00    +0.006 C 
ATOM     19  C   UNL     1      -3.105  -2.321   0.000  0.00  0.00    +0.079 C 
ATOM     20  C   UNL     1      -3.105  -1.288   0.000  0.00  0.00    +0.045 C 
ATOM     21  N   UNL     1      -3.976  -2.812   0.000  0.00  0.00    -0.038 NA
ATOM     22  O   UNL     1      -4.848  -2.321   0.000  0.00  0.00    -0.144 OA
ATOM     23  C   UNL     1      -0.461  -2.825   0.000  0.00  0.00    +0.000 C 
ATOM     24  C   UNL     1       0.431  -2.321   0.000  0.00  0.00    +0.000 C 
ATOM     25  C   UNL     1      -1.333  -0.404   0.000  0.00  0.00    +0.000 C 
ATOM     26  C   UNL     1      -2.225  -0.784   0.000  0.00  0.00    +0.006 C 
ATOM     27  C   UNL     1       0.440  -1.288   0.000  0.00  0.00    +0.000 C 
ATOM     28  C   UNL     1       0.431  -0.374   0.000  0.00  0.00    +0.000 C 
ENDROOT
BRANCH   7  29
ATOM     29  C   UNL     1       1.764   2.505   0.000  0.00  0.00    -0.044 C 
ATOM     30  C   UNL     1       0.781   2.343   0.000  0.00  0.00    +0.026 C 
ATOM     31  C   UNL     1       2.114   3.440   0.000  0.00  0.00    -0.009 C 
ENDBRANCH   7  29
BRANCH   5  32
ATOM     32  C   UNL     1       3.989  -0.263   0.000  0.00  0.00    +0.118 C 
ATOM     33  N   UNL     1       3.989  -1.258   0.000  0.00  0.00    -0.033 NA
ATOM     34  O   UNL     1       4.848  -1.719   0.000  0.00  0.00    -0.143 OA
ENDBRANCH   5  32
TORSDOF 2
ENDMDL
MODEL      301
REMARK  Name = methyl (10E)-5a,5b,8,8,11a-pentamethyl-9-oxo-10-(phenylmethylidene)-1-(prop-1-en-2-yl)-icosahydro-1H-cyclopenta[a]chrysene-3a-carboxylate
REMARK  4 active torsions:
REMARK  status: ('A' for Active; 'I' for Inactive)
REMARK    1  A    between atoms: C_4  and  C_14
REMARK    2  A    between atoms: C_13  and  C_24
REMARK    3  A    between atoms: C_14  and  O_32
REMARK    4  A    between atoms: C_15  and  C_29
REMARK                            x       y       z     vdW  Elec       q    Type
REMARK                         _______ _______ _______ _____ _____    ______ ____
ROOT
ATOM      1  C   UNL     1      -1.325  -1.194   0.000  0.00  0.00    +0.005 C 
ATOM      2  C   UNL     1      -1.325  -0.191   0.000  0.00  0.00    +0.000 C 
ATOM      3  C   UNL     1      -2.194  -0.693   0.000  0.00  0.00    +0.029 C 
ATOM      4  C   UNL     1      -3.055  -1.194   0.000  0.00  0.00    +0.012 C 
ATOM      5  C   UNL     1      -3.916  -0.745   0.000  0.00  0.00    -0.001 C 
ATOM      6  C   UNL     1      -3.055  -2.145   0.000  0.00  0.00    +0.168 C 
ATOM      7  C   UNL     1      -2.194  -2.685   0.000  0.00  0.00    +0.055 C 
ATOM      8  C   UNL     1      -1.670  -3.531   0.000  0.00  0.00    +0.008 C 
ATOM      9  C   UNL     1      -3.145  -3.299   0.000  0.00  0.00    +0.008 C 
ATOM     10  O   UNL     1      -4.081  -2.685   0.000  0.00  0.00    -0.292 OA
ATOM     11  C   UNL     1      -1.325  -2.145   0.000  0.00  0.00    +0.007 C 
ATOM     12  C   UNL     1      -0.449  -2.647   0.000  0.00  0.00    +0.000 C 
ATOM     13  C   UNL     1       0.412  -2.145   0.000  0.00  0.00    +0.000 C 
ATOM     14  C   UNL     1       0.412  -1.194   0.000  0.00  0.00    +0.000 C 
ATOM     15  C   UNL     1       0.412  -0.296   0.000  0.00  0.00    +0.000 C 
ATOM     16  C   UNL     1       1.258  -0.693   0.000  0.00  0.00    +0.000 C 
ATOM     17  C   UNL     1       1.258   0.348   0.000  0.00  0.00    +0.001 C 
ATOM     18  C   UNL     1       0.382   0.835   0.000  0.00  0.00    +0.000 C 
ATOM     19  C   UNL     1      -0.449   0.318   0.000  0.00  0.00    +0.000 C 
ATOM     20  C   UNL     1       2.119   0.857   0.000  0.00  0.00    +0.014 C 
ATOM     21  C   UNL     1       2.359   1.861   0.000  0.00  0.00    +0.019 C 
ATOM     22  C   UNL     1       3.347   1.951   0.000  0.00  0.00    +0.005 C 
ATOM     23  C   UNL     1       3.759   1.037   0.000  0.00  0.00    +0.011 C 
ATOM     24  C   UNL     1       3.003   0.348   0.000  0.00  0.00    +0.090 C 
ATOM     25  C   UNL     1       3.003  -0.655   0.000  0.00  0.00    +0.011 C 
ATOM     26  C   UNL     1       1.258  -1.644   0.000  0.00  0.00    +0.000 C 
ATOM     27  C   UNL     1       2.119  -1.142   0.000  0.00  0.00    +0.001 C 
ATOM     28  C   UNL     1      -0.449  -0.693   0.000  0.00  0.00    +0.000 C 
ENDROOT
BRANCH   5  29
ATOM     29  C   UNL     1      -3.916   0.243   0.000  0.00  0.00    -0.000 A 
ATOM     30  C   UNL     1      -4.763   0.730   0.000  0.00  0.00    -0.000 A 
ATOM     31  C   UNL     1      -4.763   1.733   0.000  0.00  0.00    -0.000 A 
ATOM     32  C   UNL     1      -3.879   2.235   0.000  0.00  0.00    -0.000 A 
ATOM     33  C   UNL     1      -3.055   1.756   0.000  0.00  0.00    -0.000 A 
ATOM     34  C   UNL     1      -3.055   0.745   0.000  0.00  0.00    -0.000 A 
ENDBRANCH   5  29
BRANCH  21  35
ATOM     35  C   UNL     1       1.707   2.595   0.000  0.00  0.00    -0.044 C 
ATOM     36  C   UNL     1       0.741   2.437   0.000  0.00  0.00    +0.026 C 
ATOM     37  C   UNL     1       2.052   3.531   0.000  0.00  0.00    -0.009 C 
ENDBRANCH  21  35
BRANCH  24  38
ATOM     38  C   UNL     1       3.901  -0.191   0.000  0.00  0.00    +0.316 C 
ATOM     39  O   UNL     1       3.916  -1.179   0.000  0.00  0.00    -0.250 OA
BRANCH  38  40
ATOM     40  O   UNL     1       4.763   0.296   0.000  0.00  0.00    -0.444 OA
ATOM     41  C   UNL     1       4.763   1.284   0.000  0.00  0.00    +0.256 C 
ENDBRANCH  38  40
ENDBRANCH  24  38
TORSDOF 4
ENDMDL
MODEL      302
REMARK  Name = methyl (10E)-10-[(carbamothioylamino)methylidene]-5a,5b,8,8,11a-pentamethyl-9-oxo-1-(prop-1-en-2-yl)-icosahydro-1H-cyclopenta[a]chrysene-3a-carboxylate
REMARK  5 active torsions:
REMARK  status: ('A' for Active; 'I' for Inactive)
REMARK    1  A    between atoms: C_4  and  C_14
REMARK    2  A    between atoms: C_13  and  C_25
REMARK    3  A    between atoms: C_14  and  O_35
REMARK    4  A    between atoms: C_15  and  N_26
REMARK    5  A    between atoms: C_16  and  N_26
REMARK                            x       y       z     vdW  Elec       q    Type
REMARK                         _______ _______ _______ _____ _____    ______ ____
ROOT
ATOM      1  C   UNL     1      -0.952  -1.347   0.000  0.00  0.00    +0.005 C 
ATOM      2  C   UNL     1      -0.952  -0.450   0.000  0.00  0.00    +0.000 C 
ATOM      3  C   UNL     1      -1.844  -0.825   0.000  0.00  0.00    +0.031 C 
ATOM      4  C   UNL     1      -2.740  -1.347   0.000  0.00  0.00    +0.029 C 
ATOM      5  C   UNL     1      -3.618  -0.887   0.000  0.00  0.00    +0.086 C 
ATOM      6  C   UNL     1      -2.740  -2.363   0.000  0.00  0.00    +0.170 C 
ATOM      7  C   UNL     1      -1.844  -2.876   0.000  0.00  0.00    +0.055 C 
ATOM      8  C   UNL     1      -1.103  -3.304   0.000  0.00  0.00    +0.008 C 
ATOM      9  C   UNL     1      -2.579  -3.339   0.000  0.00  0.00    +0.008 C 
ATOM     10  O   UNL     1      -3.605  -2.876   0.000  0.00  0.00    -0.292 OA
ATOM     11  C   UNL     1      -0.952  -2.363   0.000  0.00  0.00    +0.007 C 
ATOM     12  C   UNL     1      -0.065  -2.876   0.000  0.00  0.00    +0.000 C 
ATOM     13  C   UNL     1       0.814  -2.363   0.000  0.00  0.00    +0.000 C 
ATOM     14  C   UNL     1       0.814  -1.347   0.000  0.00  0.00    +0.000 C 
ATOM     15  C   UNL     1       0.823  -0.481   0.000  0.00  0.00    +0.000 C 
ATOM     16  C   UNL     1       1.710  -0.843   0.000  0.00  0.00    +0.000 C 
ATOM     17  C   UNL     1       1.710   0.205   0.000  0.00  0.00    +0.001 C 
ATOM     18  C   UNL     1       0.814   0.718   0.000  0.00  0.00    +0.000 C 
ATOM     19  C   UNL     1      -0.065   0.205   0.000  0.00  0.00    +0.000 C 
ATOM     20  C   UNL     1       2.588   0.709   0.000  0.00  0.00    +0.014 C 
ATOM     21  C   UNL     1       2.762   1.690   0.000  0.00  0.00    +0.019 C 
ATOM     22  C   UNL     1       3.819   1.833   0.000  0.00  0.00    +0.005 C 
ATOM     23  C   UNL     1       4.247   0.887   0.000  0.00  0.00    +0.011 C 
ATOM     24  C   UNL     1       3.475   0.192   0.000  0.00  0.00    +0.090 C 
ATOM     25  C   UNL     1       3.475  -0.825   0.000  0.00  0.00    +0.011 C 
ATOM     26  C   UNL     1       1.710  -1.699   0.000  0.00  0.00    +0.000 C 
ATOM     27  C   UNL     1       2.588  -1.338   0.000  0.00  0.00    +0.001 C 
ATOM     28  C   UNL     1      -0.065  -0.825   0.000  0.00  0.00    +0.000 C 
ENDROOT
BRANCH  21  29
ATOM     29  C   UNL     1       2.067   2.385   0.000  0.00  0.00    -0.044 C 
ATOM     30  C   UNL     1       1.112   2.140   0.000  0.00  0.00    +0.026 C 
ATOM     31  C   UNL     1       2.312   3.339   0.000  0.00  0.00    -0.009 C 
ENDBRANCH  21  29
BRANCH  24  32
ATOM     32  C   UNL     1       4.439  -0.343   0.000  0.00  0.00    +0.316 C 
ATOM     33  O   UNL     1       5.339   0.076   0.000  0.00  0.00    -0.250 OA
BRANCH  32  34
ATOM     34  O   UNL     1       4.439  -1.315   0.000  0.00  0.00    -0.444 OA
ATOM     35  C   UNL     1       5.295  -1.806   0.000  0.00  0.00    +0.256 C 
ENDBRANCH  32  34
ENDBRANCH  24  32
BRANCH   5  36
ATOM     36  N   UNL     1      -3.618   0.098   0.000  0.00  0.00    -0.188 NA
BRANCH  36  37
ATOM     37  C   UNL     1      -4.519   0.557   0.000  0.00  0.00    +0.196 C 
ATOM     38  N   UNL     1      -4.505   1.574   0.000  0.00  0.00    -0.102 NA
ATOM     39  S   UNL     1      -5.339   0.013   0.000  0.00  0.00    -0.013 S 
ENDBRANCH  36  37
ENDBRANCH   5  36
TORSDOF 5
ENDMDL
MODEL      303
REMARK  Name = (10Z)-10-[(furan-2-yl)methylidene]-5a,5b,8,8,11a-pentamethyl-9-oxo-1-(prop-1-en-2-yl)-icosahydro-1H-cyclopenta[a]chrysene-3a-carboxylic acid
REMARK  3 active torsions:
REMARK  status: ('A' for Active; 'I' for Inactive)
REMARK    1  A    between atoms: C_4  and  C_15
REMARK    2  A    between atoms: C_13  and  C_25
REMARK    3  A    between atoms: C_14  and  C_23
REMARK                            x       y       z     vdW  Elec       q    Type
REMARK                         _______ _______ _______ _____ _____    ______ ____
ROOT
ATOM      1  C   UNL     1      -0.548  -1.284   0.000  0.00  0.00    +0.005 C 
ATOM      2  C   UNL     1      -0.548  -0.405   0.000  0.00  0.00    +0.000 C 
ATOM      3  C   UNL     1      -1.440  -0.787   0.000  0.00  0.00    +0.029 C 
ATOM      4  C   UNL     1      -2.324  -1.284   0.000  0.00  0.00    +0.015 C 
ATOM      5  C   UNL     1      -3.168  -0.777   0.000  0.00  0.00    +0.036 C 
ATOM      6  C   UNL     1      -2.324  -2.326   0.000  0.00  0.00    +0.168 C 
ATOM      7  C   UNL     1      -1.440  -2.823   0.000  0.00  0.00    +0.055 C 
ATOM      8  C   UNL     1      -2.101  -3.440   0.000  0.00  0.00    +0.008 C 
ATOM      9  C   UNL     1      -0.770  -3.440   0.000  0.00  0.00    +0.008 C 
ATOM     10  O   UNL     1      -3.168  -2.837   0.000  0.00  0.00    -0.292 OA
ATOM     11  C   UNL     1      -0.548  -2.326   0.000  0.00  0.00    +0.007 C 
ATOM     12  C   UNL     1       0.321  -2.823   0.000  0.00  0.00    +0.000 C 
ATOM     13  C   UNL     1       1.214  -2.326   0.000  0.00  0.00    +0.000 C 
ATOM     14  C   UNL     1       1.223  -1.284   0.000  0.00  0.00    +0.000 C 
ATOM     15  C   UNL     1       1.214  -0.381   0.000  0.00  0.00    +0.000 C 
ATOM     16  C   UNL     1       2.092  -0.787   0.000  0.00  0.00    +0.000 C 
ATOM     17  C   UNL     1       2.092   0.232   0.000  0.00  0.00    +0.001 C 
ATOM     18  C   UNL     1       1.199   0.753   0.000  0.00  0.00    +0.000 C 
ATOM     19  C   UNL     1       0.321   0.232   0.000  0.00  0.00    +0.000 C 
ATOM     20  C   UNL     1       2.960   0.729   0.000  0.00  0.00    +0.014 C 
ATOM     21  C   UNL     1       3.192   1.737   0.000  0.00  0.00    +0.019 C 
ATOM     22  C   UNL     1       4.176   1.829   0.000  0.00  0.00    +0.005 C 
ATOM     23  C   UNL     1       4.572   0.868   0.000  0.00  0.00    +0.011 C 
ATOM     24  C   UNL     1       3.853   0.232   0.000  0.00  0.00    +0.094 C 
ATOM     25  C   UNL     1       3.853  -0.787   0.000  0.00  0.00    +0.011 C 
ATOM     26  C   UNL     1       2.092  -1.723   0.000  0.00  0.00    +0.000 C 
ATOM     27  C   UNL     1       2.960  -1.284   0.000  0.00  0.00    +0.001 C 
ATOM     28  C   UNL     1       0.321  -0.787   0.000  0.00  0.00    +0.000 C 
ENDROOT
BRANCH   5  29
ATOM     29  C   UNL     1      -4.022  -1.274   0.000  0.00  0.00    +0.145 A 
ATOM     30  C   UNL     1      -4.939  -0.878   0.000  0.00  0.00    +0.041 A 
ATOM     31  C   UNL     1      -5.633  -1.655   0.000  0.00  0.00    +0.044 A 
ATOM     32  C   UNL     1      -5.098  -2.514   0.000  0.00  0.00    +0.180 A 
ATOM     33  O   UNL     1      -4.138  -2.268   0.000  0.00  0.00    -0.450 OA
ENDBRANCH   5  29
BRANCH  21  34
ATOM     34  C   UNL     1       2.545   2.504   0.000  0.00  0.00    -0.044 C 
ATOM     35  C   UNL     1       1.561   2.340   0.000  0.00  0.00    +0.026 C 
ATOM     36  C   UNL     1       2.893   3.440   0.000  0.00  0.00    -0.009 C 
ENDBRANCH  21  34
BRANCH  24  37
ATOM     37  C   UNL     1       4.765  -0.266   0.000  0.00  0.00    +0.364 C 
ATOM     38  O   UNL     1       5.633   0.232   0.000  0.00  0.00    -0.246 OA
ATOM     39  O   UNL     1       4.823  -1.259   0.000  0.00  0.00    -0.246 OA
ENDBRANCH  24  37
TORSDOF 3
ENDMDL
MODEL      304
REMARK  Name = 15-[5-(2-HYDROXYPROPAN-2-YL)-2-METHYLOXOLAN-2-YL]-7,7,12,16-TETRAMETHYLPENTACYCLO[9.7.0.0^(1,3).0^(3,8).0^(12,16)]OCTADECANE-6,9,14-TRIOL
REMARK  2 active torsions:
REMARK  status: ('A' for Active; 'I' for Inactive)
REMARK    1  A    between atoms: C_8  and  C_9
REMARK    2  A    between atoms: C_19  and  C_20
REMARK                            x       y       z     vdW  Elec       q    Type
REMARK                         _______ _______ _______ _____ _____    ______ ____
ROOT
ATOM      1  C   UNL     1      -1.754  -0.434   0.000  0.00  0.00    +0.000 C 
ATOM      2  C   UNL     1      -1.754   0.518   0.000  0.00  0.00    +0.000 C 
ATOM      3  C   UNL     1      -0.921   1.016   0.000  0.00  0.00    +0.000 C 
ATOM      4  C   UNL     1      -0.093   0.518   0.000  0.00  0.00    +0.005 C 
ATOM      5  C   UNL     1      -0.093  -0.434   0.000  0.00  0.00    +0.003 C 
ATOM      6  C   UNL     1      -0.093  -1.333   0.000  0.00  0.00    +0.000 C 
ATOM      7  C   UNL     1       0.807  -0.707   0.000  0.00  0.00    +0.033 C 
ATOM      8  C   UNL     1       1.335   0.042   0.000  0.00  0.00    +0.154 C 
ATOM      9  O   UNL     1       2.371   0.042   0.000  0.00  0.00    -0.223 OA
ATOM     10  C   UNL     1      -0.093   1.642   0.000  0.00  0.00    +0.000 C 
ATOM     11  C   UNL     1       0.807   0.804   0.000  0.00  0.00    +0.055 C 
ATOM     12  C   UNL     1      -2.592   0.214   0.000  0.00  0.00    +0.000 C 
ATOM     13  C   UNL     1      -0.921  -0.941   0.000  0.00  0.00    +0.003 C 
ATOM     14  C   UNL     1      -0.921  -1.871   0.000  0.00  0.00    +0.033 C 
ATOM     15  C   UNL     1      -1.754  -2.347   0.000  0.00  0.00    +0.152 C 
ATOM     16  C   UNL     1      -2.592  -1.871   0.000  0.00  0.00    +0.033 C 
ATOM     17  C   UNL     1      -3.447  -2.347   0.000  0.00  0.00    +0.031 C 
ATOM     18  C   UNL     1      -4.209  -1.871   0.000  0.00  0.00    +0.152 C 
ATOM     19  O   UNL     1      -5.056  -2.369   0.000  0.00  0.00    -0.223 OA
ATOM     20  C   UNL     1      -4.209  -0.941   0.000  0.00  0.00    +0.033 C 
ATOM     21  C   UNL     1      -3.447  -0.434   0.000  0.00  0.00    +0.003 C 
ATOM     22  C   UNL     1      -3.068  -3.184   0.000  0.00  0.00    +0.003 C 
ATOM     23  C   UNL     1      -4.006  -3.216   0.000  0.00  0.00    +0.003 C 
ATOM     24  O   UNL     1      -1.754  -3.449   0.000  0.00  0.00    -0.223 OA
ATOM     25  C   UNL     1      -2.592  -0.941   0.000  0.00  0.00    +0.003 C 
ENDROOT
BRANCH  11  26
ATOM     26  C   UNL     1       1.300   1.840   0.000  0.00  0.00    +0.095 C 
ATOM     27  C   UNL     1       0.498   2.382   0.000  0.00  0.00    +0.030 C 
ATOM     28  C   UNL     1       1.300   2.867   0.000  0.00  0.00    +0.030 C 
ATOM     29  C   UNL     1       2.318   3.198   0.000  0.00  0.00    +0.035 C 
ATOM     30  C   UNL     1       2.940   2.382   0.000  0.00  0.00    +0.143 C 
ATOM     31  O   UNL     1       2.318   1.470   0.000  0.00  0.00    -0.358 OA
BRANCH  30  32
ATOM     32  C   UNL     1       3.980   2.382   0.000  0.00  0.00    +0.151 C 
ATOM     33  C   UNL     1       3.980   3.449   0.000  0.00  0.00    +0.035 C 
ATOM     34  C   UNL     1       3.980   1.294   0.000  0.00  0.00    +0.035 C 
ATOM     35  O   UNL     1       5.056   2.382   0.000  0.00  0.00    -0.223 OA
ENDBRANCH  30  32
ENDBRANCH  11  26
TORSDOF 2
ENDMDL
MODEL      305
REMARK  Name = 3,4,5-trihydroxy-6-({[3,4,5-trihydroxy-6-(hydroxymethyl)oxan-2-yl]oxy}methyl)oxan-2-yl 10-{[3-({3,5-dihydroxy-6-methyl-4-[(3,4,5-trihydroxyoxan-2-yl)oxy]oxan-2-yl}oxy)-4,5-dihydroxyoxan-2-yl]oxy}-2,2, 6a,6b,9,9,12a-heptamethyl-1,2,3,4,4a,5,6,6a,6b,7,8,8a,9,10,11,12,12a,12b,13,14b-icosahydropicene-4a-carboxylate
REMARK  13 active torsions:
REMARK  status: ('A' for Active; 'I' for Inactive)
REMARK    1  A    between atoms: C_4  and  O_25
REMARK    2  A    between atoms: C_5  and  C_15
REMARK    3  A    between atoms: C_6  and  O_22
REMARK    4  A    between atoms: C_8  and  O_22
REMARK    5  A    between atoms: C_9  and  O_29
REMARK    6  A    between atoms: C_15  and  O_29
REMARK    7  A    between atoms: C_20  and  O_25
REMARK    8  A    between atoms: C_21  and  O_42
REMARK    9  A    between atoms: C_23  and  O_53
REMARK   10  A    between atoms: C_33  and  C_54
REMARK   11  A    between atoms: C_37  and  C_77
REMARK   12  A    between atoms: C_38  and  O_42
REMARK   13  A    between atoms: O_53  and  C_54
REMARK                            x       y       z     vdW  Elec       q    Type
REMARK                         _______ _______ _______ _____ _____    ______ ____
ROOT
ATOM      1  C   UNL     1       0.313   2.471   0.000  0.00  0.00    +0.015 C 
ATOM      2  C   UNL     1       0.313   1.783   0.000  0.00  0.00    +0.004 C 
ATOM      3  C   UNL     1       0.910   2.079   0.000  0.00  0.00    +0.004 C 
ATOM      4  C   UNL     1       1.522   2.443   0.000  0.00  0.00    +0.011 C 
ATOM      5  C   UNL     1       1.522   3.151   0.000  0.00  0.00    +0.093 C 
ATOM      6  C   UNL     1       0.910   3.481   0.000  0.00  0.00    +0.028 C 
ATOM      7  C   UNL     1       0.910   4.203   0.000  0.00  0.00    +0.005 C 
ATOM      8  C   UNL     1       1.522   4.532   0.000  0.00  0.00    +0.000 C 
ATOM      9  C   UNL     1       2.127   4.203   0.000  0.00  0.00    +0.001 C 
ATOM     10  C   UNL     1       0.862   4.979   0.000  0.00  0.00    +0.000 C 
ATOM     11  C   UNL     1       2.230   5.000   0.000  0.00  0.00    +0.000 C 
ATOM     12  C   UNL     1       2.127   3.481   0.000  0.00  0.00    +0.011 C 
ATOM     13  C   UNL     1      -0.326   2.079   0.000  0.00  0.00    +0.003 C 
ATOM     14  C   UNL     1      -0.313   2.793   0.000  0.00  0.00    +0.000 C 
ATOM     15  C   UNL     1      -0.326   1.392   0.000  0.00  0.00    +0.000 C 
ATOM     16  C   UNL     1      -0.952   1.020   0.000  0.00  0.00    +0.000 C 
ATOM     17  C   UNL     1      -1.584   1.392   0.000  0.00  0.00    +0.002 C 
ATOM     18  C   UNL     1      -1.584   2.079   0.000  0.00  0.00    +0.000 C 
ATOM     19  C   UNL     1      -1.584   2.958   0.000  0.00  0.00    +0.000 C 
ATOM     20  C   UNL     1      -2.209   2.471   0.000  0.00  0.00    +0.003 C 
ATOM     21  C   UNL     1      -2.766   2.079   0.000  0.00  0.00    +0.030 C 
ATOM     22  C   UNL     1      -2.766   1.392   0.000  0.00  0.00    +0.118 C 
ATOM     23  C   UNL     1      -2.209   1.020   0.000  0.00  0.00    +0.025 C 
ATOM     24  C   UNL     1      -1.935   0.409   0.000  0.00  0.00    +0.002 C 
ATOM     25  C   UNL     1      -2.601   0.409   0.000  0.00  0.00    +0.002 C 
ATOM     26  C   UNL     1      -0.952   2.471   0.000  0.00  0.00    +0.005 C 
ATOM     27  C   UNL     1      -0.952   3.165   0.000  0.00  0.00    +0.025 C 
ATOM     28  C   UNL     1      -0.326   3.536   0.000  0.00  0.00    -0.035 C 
ATOM     29  C   UNL     1       0.313   3.151   0.000  0.00  0.00    -0.049 C 
ENDROOT
BRANCH   5  30
ATOM     30  C   UNL     1       2.374   2.800   0.000  0.00  0.00    +0.318 C 
ATOM     31  O   UNL     1       2.374   1.887   0.000  0.00  0.00    -0.250 OA
BRANCH  30  32
ATOM     32  O   UNL     1       3.151   3.247   0.000  0.00  0.00    -0.422 OA
BRANCH  32  33
ATOM     33  C   UNL     1       3.151   3.976   0.000  0.00  0.00    +0.324 C 
ATOM     34  O   UNL     1       3.962   2.904   0.000  0.00  0.00    -0.316 OA
ATOM     35  C   UNL     1       5.398   2.904   0.000  0.00  0.00    +0.181 C 
ATOM     36  C   UNL     1       6.189   3.928   0.000  0.00  0.00    +0.214 C 
ATOM     37  C   UNL     1       5.426   4.938   0.000  0.00  0.00    +0.221 C 
ATOM     38  O   UNL     1       5.460   3.955   0.000  0.00  0.00    -0.217 OA
ATOM     39  O   UNL     1       6.189   4.855   0.000  0.00  0.00    -0.218 OA
ATOM     40  C   UNL     1       3.976   4.979   0.000  0.00  0.00    +0.254 C 
ATOM     41  O   UNL     1       3.962   5.721   0.000  0.00  0.00    -0.213 OA
BRANCH  35  42
ATOM     42  C   UNL     1       5.426   2.196   0.000  0.00  0.00    +0.177 C 
BRANCH  42  43
ATOM     43  O   UNL     1       6.223   1.454   0.000  0.00  0.00    -0.326 OA
BRANCH  43  44
ATOM     44  C   UNL     1       6.223  -1.075   0.000  0.00  0.00    +0.270 C 
ATOM     45  O   UNL     1       5.460  -0.003   0.000  0.00  0.00    -0.326 OA
ATOM     46  C   UNL     1       3.962  -0.003   0.000  0.00  0.00    +0.183 C 
ATOM     47  C   UNL     1       3.178  -1.075   0.000  0.00  0.00    +0.214 C 
ATOM     48  C   UNL     1       3.962  -2.072   0.000  0.00  0.00    +0.220 C 
ATOM     49  O   UNL     1       3.962  -1.020   0.000  0.00  0.00    -0.217 OA
ATOM     50  O   UNL     1       3.178  -2.072   0.000  0.00  0.00    -0.218 OA
ATOM     51  C   UNL     1       5.460  -2.072   0.000  0.00  0.00    +0.241 C 
ATOM     52  O   UNL     1       5.460  -2.979   0.000  0.00  0.00    -0.215 OA
BRANCH  46  53
ATOM     53  C   UNL     1       3.962   0.649   0.000  0.00  0.00    +0.214 C 
ATOM     54  O   UNL     1       3.151   1.103   0.000  0.00  0.00    -0.218 OA
ENDBRANCH  46  53
ENDBRANCH  43  44
ENDBRANCH  42  43
ENDBRANCH  35  42
ENDBRANCH  32  33
ENDBRANCH  30  32
ENDBRANCH   5  30
BRANCH  22  55
ATOM     55  O   UNL     1      -3.502   1.007   0.000  0.00  0.00    -0.331 OA
BRANCH  55  56
ATOM     56  C   UNL     1      -3.502   2.010   0.000  0.00  0.00    +0.266 C 
ATOM     57  O   UNL     1      -4.189   2.958   0.000  0.00  0.00    -0.326 OA
ATOM     58  C   UNL     1      -5.522   2.958   0.000  0.00  0.00    +0.180 C 
ATOM     59  C   UNL     1      -6.223   2.079   0.000  0.00  0.00    +0.214 C 
ATOM     60  C   UNL     1      -5.522   1.172   0.000  0.00  0.00    +0.217 C 
ATOM     61  O   UNL     1      -5.522   2.010   0.000  0.00  0.00    -0.218 OA
ATOM     62  O   UNL     1      -6.223   3.048   0.000  0.00  0.00    -0.218 OA
ATOM     63  C   UNL     1      -4.223   1.172   0.000  0.00  0.00    +0.207 C 
BRANCH  63  64
ATOM     64  O   UNL     1      -4.223  -1.020   0.000  0.00  0.00    -0.323 OA
BRANCH  64  65
ATOM     65  C   UNL     1      -4.223  -4.704   0.000  0.00  0.00    +0.269 C 
ATOM     66  O   UNL     1      -3.673  -5.412   0.000  0.00  0.00    -0.328 OA
ATOM     67  C   UNL     1      -2.491  -5.412   0.000  0.00  0.00    +0.151 C 
ATOM     68  C   UNL     1      -2.519  -4.518   0.000  0.00  0.00    +0.035 C 
ATOM     69  C   UNL     1      -1.914  -4.628   0.000  0.00  0.00    +0.209 C 
ATOM     70  C   UNL     1      -2.553  -3.962   0.000  0.00  0.00    +0.186 C 
ATOM     71  O   UNL     1      -1.914  -5.721   0.000  0.00  0.00    -0.218 OA
ATOM     72  C   UNL     1      -3.584  -3.962   0.000  0.00  0.00    +0.237 C 
ATOM     73  O   UNL     1      -3.584  -3.185   0.000  0.00  0.00    -0.215 OA
BRANCH  70  74
ATOM     74  O   UNL     1      -2.553  -3.144   0.000  0.00  0.00    -0.326 OA
BRANCH  74  75
ATOM     75  C   UNL     1      -2.574  -2.147   0.000  0.00  0.00    +0.270 C 
ATOM     76  O   UNL     1      -1.831  -3.082   0.000  0.00  0.00    -0.326 OA
ATOM     77  C   UNL     1      -0.642  -3.082   0.000  0.00  0.00    +0.180 C 
ATOM     78  C   UNL     1       0.120  -2.147   0.000  0.00  0.00    +0.214 C 
ATOM     79  C   UNL     1      -0.642  -1.268   0.000  0.00  0.00    +0.220 C 
ATOM     80  O   UNL     1      -0.642  -2.113   0.000  0.00  0.00    -0.217 OA
ATOM     81  O   UNL     1       0.065  -1.103   0.000  0.00  0.00    -0.218 OA
ATOM     82  C   UNL     1      -1.879  -1.268   0.000  0.00  0.00    +0.241 C 
ATOM     83  O   UNL     1      -1.879  -0.526   0.000  0.00  0.00    -0.215 OA
ENDBRANCH  74  75
ENDBRANCH  70  74
ENDBRANCH  64  65
ENDBRANCH  63  64
ENDBRANCH  55  56
ENDBRANCH  22  55
TORSDOF 13
ENDMDL
MODEL      306
REMARK  Name = 7-[(3,4-dihydroxy-6-methyl-5-{[3,4,5-trihydroxy-6-(hydroxymethyl)oxan-2-yl]oxy}oxan-2-yl)oxy]-3a,5a-dihydroxy-11a-methyl-1-(2-oxo-2H-pyran-5-yl)-hexadecahydro-1H-cyclopenta[a]phenanthrene-9a-carbaldeh yde
REMARK  7 active torsions:
REMARK  status: ('A' for Active; 'I' for Inactive)
REMARK    1  A    between atoms: C_2  and  C_36
REMARK    2  A    between atoms: C_4  and  O_15
REMARK    3  A    between atoms: C_5  and  O_31
REMARK    4  A    between atoms: C_6  and  O_15
REMARK    5  A    between atoms: C_18  and  C_20
REMARK    6  A    between atoms: C_19  and  C_49
REMARK    7  A    between atoms: O_31  and  C_37
REMARK                            x       y       z     vdW  Elec       q    Type
REMARK                         _______ _______ _______ _____ _____    ______ ____
ROOT
ATOM      1  C   UNL     1       3.785  -0.163   0.000  0.00  0.00    +0.123 C 
ATOM      2  O   UNL     1       3.797  -1.151   0.000  0.00  0.00    -0.226 OA
ATOM      3  C   UNL     1       4.579  -0.426   0.000  0.00  0.00    +0.030 C 
ATOM      4  C   UNL     1       5.031   0.249   0.000  0.00  0.00    +0.007 C 
ATOM      5  C   UNL     1       4.579   0.906   0.000  0.00  0.00    +0.028 C 
ATOM      6  C   UNL     1       3.071  -0.620   0.000  0.00  0.00    +0.038 C 
ATOM      7  C   UNL     1       3.071  -1.425   0.000  0.00  0.00    +0.001 C 
ATOM      8  C   UNL     1       2.357  -1.837   0.000  0.00  0.00    +0.031 C 
ATOM      9  C   UNL     1       1.614  -1.425   0.000  0.00  0.00    +0.135 C 
ATOM     10  C   UNL     1       1.614  -0.620   0.000  0.00  0.00    +0.081 C 
ATOM     11  C   UNL     1       0.877  -0.163   0.000  0.00  0.00    +0.012 C 
ATOM     12  C   UNL     1       0.203  -0.620   0.000  0.00  0.00    +0.030 C 
ATOM     13  C   UNL     1       0.203  -1.425   0.000  0.00  0.00    +0.120 C 
ATOM     14  O   UNL     1       1.614  -2.523   0.000  0.00  0.00    -0.225 OA
ATOM     15  C   UNL     1       0.877  -1.837   0.000  0.00  0.00    +0.060 C 
ATOM     16  C   UNL     1       2.357  -0.163   0.000  0.00  0.00    +0.021 C 
ATOM     17  C   UNL     1       2.357   0.660   0.000  0.00  0.00    -0.004 C 
ATOM     18  C   UNL     1       3.071   1.071   0.000  0.00  0.00    +0.002 C 
ATOM     19  C   UNL     1       3.785   0.660   0.000  0.00  0.00    +0.029 C 
ATOM     20  C   UNL     1       3.797   1.631   0.000  0.00  0.00    +0.003 C 
ENDROOT
BRANCH   5  21
ATOM     21  C   UNL     1       4.922   1.825   0.000  0.00  0.00    +0.015 A 
ATOM     22  C   UNL     1       5.922   2.003   0.000  0.00  0.00    +0.006 A 
ATOM     23  C   UNL     1       6.254   2.946   0.000  0.00  0.00    +0.082 A 
ATOM     24  C   UNL     1       5.591   3.728   0.000  0.00  0.00    +0.346 A 
ATOM     25  O   UNL     1       4.631   3.523   0.000  0.00  0.00    -0.418 OA
ATOM     26  O   UNL     1       5.922   4.688   0.000  0.00  0.00    -0.244 OA
ATOM     27  C   UNL     1       4.277   2.580   0.000  0.00  0.00    +0.179 A 
ENDBRANCH   5  21
BRANCH  10  28
ATOM     28  C   UNL     1       1.603   0.397   0.000  0.00  0.00    +0.209 C 
ATOM     29  O   UNL     1       0.740   0.888   0.000  0.00  0.00    -0.288 OA
ENDBRANCH  10  28
BRANCH  13  30
ATOM     30  O   UNL     1      -0.523  -1.865   0.000  0.00  0.00    -0.331 OA
BRANCH  30  31
ATOM     31  C   UNL     1      -0.523  -3.002   0.000  0.00  0.00    +0.269 C 
ATOM     32  O   UNL     1      -1.237  -2.083   0.000  0.00  0.00    -0.328 OA
ATOM     33  C   UNL     1      -2.580  -2.083   0.000  0.00  0.00    +0.148 C 
ATOM     34  C   UNL     1      -2.580  -2.825   0.000  0.00  0.00    +0.035 C 
ATOM     35  C   UNL     1      -3.294  -3.002   0.000  0.00  0.00    +0.178 C 
ATOM     36  C   UNL     1      -2.580  -3.894   0.000  0.00  0.00    +0.217 C 
ATOM     37  O   UNL     1      -2.580  -4.688   0.000  0.00  0.00    -0.218 OA
ATOM     38  C   UNL     1      -1.237  -3.894   0.000  0.00  0.00    +0.240 C 
ATOM     39  O   UNL     1      -1.237  -4.665   0.000  0.00  0.00    -0.215 OA
BRANCH  35  40
ATOM     40  O   UNL     1      -3.294  -1.466   0.000  0.00  0.00    -0.326 OA
BRANCH  40  41
ATOM     41  C   UNL     1      -3.294   0.288   0.000  0.00  0.00    +0.270 C 
ATOM     42  O   UNL     1      -4.077  -0.729   0.000  0.00  0.00    -0.326 OA
ATOM     43  C   UNL     1      -5.557  -0.729   0.000  0.00  0.00    +0.183 C 
ATOM     44  C   UNL     1      -6.254   0.288   0.000  0.00  0.00    +0.214 C 
ATOM     45  C   UNL     1      -5.557   1.249   0.000  0.00  0.00    +0.220 C 
ATOM     46  O   UNL     1      -5.557   0.300   0.000  0.00  0.00    -0.217 OA
ATOM     47  O   UNL     1      -6.254   1.688   0.000  0.00  0.00    -0.218 OA
ATOM     48  C   UNL     1      -4.077   1.249   0.000  0.00  0.00    +0.241 C 
ATOM     49  O   UNL     1      -4.077   2.123   0.000  0.00  0.00    -0.215 OA
BRANCH  43  50
ATOM     50  C   UNL     1      -5.557  -1.603   0.000  0.00  0.00    +0.214 C 
ATOM     51  O   UNL     1      -4.774  -2.111   0.000  0.00  0.00    -0.218 OA
ENDBRANCH  43  50
ENDBRANCH  40  41
ENDBRANCH  35  40
ENDBRANCH  30  31
ENDBRANCH  13  30
TORSDOF 7
ENDMDL
MODEL      307
REMARK  Name = 4-{7-[(3,4-dihydroxy-6-methyl-5-{[3,4,5-trihydroxy-6-(hydroxymethyl)oxan-2-yl]oxy}oxan-2-yl)oxy]-3a-hydroxy-9a,11a-dimethyl-hexadecahydro-1H-cyclopenta[a]phenanthren-1-yl}-2,5-dihydrofuran-2-one
REMARK  6 active torsions:
REMARK  status: ('A' for Active; 'I' for Inactive)
REMARK    1  A    between atoms: C_3  and  O_14
REMARK    2  A    between atoms: C_4  and  O_27
REMARK    3  A    between atoms: C_5  and  O_14
REMARK    4  A    between atoms: C_16  and  C_17
REMARK    5  A    between atoms: C_19  and  C_46
REMARK    6  A    between atoms: O_27  and  C_35
REMARK                            x       y       z     vdW  Elec       q    Type
REMARK                         _______ _______ _______ _____ _____    ______ ____
ROOT
ATOM      1  C   UNL     1       3.151   0.212   0.000  0.00  0.00    +0.123 C 
ATOM      2  O   UNL     1       3.162  -0.754   0.000  0.00  0.00    -0.226 OA
ATOM      3  C   UNL     1       3.927  -0.044   0.000  0.00  0.00    +0.030 C 
ATOM      4  C   UNL     1       4.368   0.614   0.000  0.00  0.00    +0.007 C 
ATOM      5  C   UNL     1       3.927   1.256   0.000  0.00  0.00    +0.024 C 
ATOM      6  C   UNL     1       2.454  -0.234   0.000  0.00  0.00    +0.037 C 
ATOM      7  C   UNL     1       2.454  -1.022   0.000  0.00  0.00    -0.002 C 
ATOM      8  C   UNL     1       1.756  -1.423   0.000  0.00  0.00    -0.004 C 
ATOM      9  C   UNL     1       1.030  -1.022   0.000  0.00  0.00    +0.015 C 
ATOM     10  C   UNL     1       1.030  -0.234   0.000  0.00  0.00    -0.007 C 
ATOM     11  C   UNL     1       1.018   0.759   0.000  0.00  0.00    -0.001 C 
ATOM     12  C   UNL     1       0.310   0.212   0.000  0.00  0.00    +0.002 C 
ATOM     13  C   UNL     1      -0.349  -0.234   0.000  0.00  0.00    +0.030 C 
ATOM     14  C   UNL     1      -0.349  -1.022   0.000  0.00  0.00    +0.118 C 
ATOM     15  C   UNL     1       0.310  -1.423   0.000  0.00  0.00    +0.026 C 
ATOM     16  C   UNL     1       1.756   0.212   0.000  0.00  0.00    +0.011 C 
ATOM     17  C   UNL     1       1.756   1.016   0.000  0.00  0.00    -0.004 C 
ATOM     18  C   UNL     1       2.454   1.418   0.000  0.00  0.00    +0.002 C 
ATOM     19  C   UNL     1       3.151   1.016   0.000  0.00  0.00    +0.029 C 
ATOM     20  C   UNL     1       3.162   1.965   0.000  0.00  0.00    +0.003 C 
ENDROOT
BRANCH   5  21
ATOM     21  C   UNL     1       4.474   2.205   0.000  0.00  0.00    +0.005 C 
ATOM     22  C   UNL     1       3.899   3.171   0.000  0.00  0.00    +0.231 C 
ATOM     23  O   UNL     1       4.625   4.030   0.000  0.00  0.00    -0.441 OA
ATOM     24  C   UNL     1       5.669   3.584   0.000  0.00  0.00    +0.341 C 
ATOM     25  O   UNL     1       6.657   4.187   0.000  0.00  0.00    -0.245 OA
ATOM     26  C   UNL     1       5.585   2.490   0.000  0.00  0.00    +0.077 C 
ENDBRANCH   5  21
BRANCH  14  27
ATOM     27  O   UNL     1      -1.058  -1.451   0.000  0.00  0.00    -0.331 OA
BRANCH  27  28
ATOM     28  C   UNL     1      -1.058  -2.562   0.000  0.00  0.00    +0.269 C 
ATOM     29  O   UNL     1      -1.756  -1.664   0.000  0.00  0.00    -0.328 OA
ATOM     30  C   UNL     1      -3.068  -1.664   0.000  0.00  0.00    +0.148 C 
ATOM     31  C   UNL     1      -3.068  -0.887   0.000  0.00  0.00    +0.035 C 
ATOM     32  C   UNL     1      -3.766  -2.562   0.000  0.00  0.00    +0.178 C 
ATOM     33  C   UNL     1      -3.068  -3.433   0.000  0.00  0.00    +0.217 C 
ATOM     34  O   UNL     1      -3.068  -2.428   0.000  0.00  0.00    -0.218 OA
ATOM     35  C   UNL     1      -1.756  -3.433   0.000  0.00  0.00    +0.240 C 
ATOM     36  O   UNL     1      -1.756  -4.187   0.000  0.00  0.00    -0.215 OA
BRANCH  32  37
ATOM     37  O   UNL     1      -3.766  -1.061   0.000  0.00  0.00    -0.326 OA
BRANCH  37  38
ATOM     38  C   UNL     1      -3.766   0.653   0.000  0.00  0.00    +0.270 C 
ATOM     39  O   UNL     1      -4.530  -0.341   0.000  0.00  0.00    -0.326 OA
ATOM     40  C   UNL     1      -5.976  -0.341   0.000  0.00  0.00    +0.183 C 
ATOM     41  C   UNL     1      -6.657   0.653   0.000  0.00  0.00    +0.214 C 
ATOM     42  C   UNL     1      -5.976   1.591   0.000  0.00  0.00    +0.220 C 
ATOM     43  O   UNL     1      -5.976   0.664   0.000  0.00  0.00    -0.217 OA
ATOM     44  O   UNL     1      -6.657   2.021   0.000  0.00  0.00    -0.218 OA
ATOM     45  C   UNL     1      -4.530   1.591   0.000  0.00  0.00    +0.241 C 
ATOM     46  O   UNL     1      -4.530   2.445   0.000  0.00  0.00    -0.215 OA
BRANCH  40  47
ATOM     47  C   UNL     1      -5.976  -1.194   0.000  0.00  0.00    +0.214 C 
ATOM     48  O   UNL     1      -5.212  -1.692   0.000  0.00  0.00    -0.218 OA
ENDBRANCH  40  47
ENDBRANCH  37  38
ENDBRANCH  32  37
ENDBRANCH  27  28
ENDBRANCH  14  27
TORSDOF 6
ENDMDL
MODEL      308
REMARK  Name = 5-hydroxy-2-(4-methoxyphenyl)-7-[(3,4,5-trihydroxy-6-{[(3,4,5-trihydroxy-6-methyloxan-2-yl)oxy]methyl}oxan-2-yl)oxy]-4H-chromen-4-one
REMARK  7 active torsions:
REMARK  status: ('A' for Active; 'I' for Inactive)
REMARK    1  A    between atoms: C_2  and  O_22
REMARK    2  A    between atoms: C_6  and  C_25
REMARK    3  A    between atoms: C_12  and  O_24
REMARK    4  A    between atoms: C_16  and  C_27
REMARK    5  A    between atoms: C_20  and  O_22
REMARK    6  A    between atoms: O_24  and  C_27
REMARK    7  A    between atoms: C_37  and  O_40
REMARK                            x       y       z     vdW  Elec       q    Type
REMARK                         _______ _______ _______ _____ _____    ______ ____
ROOT
ATOM      1  O   UNL     1      -3.459  -1.309   0.000  0.00  0.00    -0.450 OA
ENDROOT
BRANCH   1   6
ATOM      2  C   UNL     1      -0.846  -2.825   0.000  0.00  0.00    +0.113 A 
ATOM      3  C   UNL     1      -1.708  -3.317   0.000  0.00  0.00    +0.205 A 
ATOM      4  O   UNL     1      -1.735  -4.319   0.000  0.00  0.00    -0.286 OA
ATOM      5  C   UNL     1      -2.559  -2.825   0.000  0.00  0.00    +0.079 A 
ATOM      6  C   UNL     1      -2.559  -1.823   0.000  0.00  0.00    +0.148 A 
ATOM      7  C   UNL     1      -1.708  -1.309   0.000  0.00  0.00    +0.075 A 
ATOM      8  C   UNL     1      -0.846  -1.823   0.000  0.00  0.00    +0.154 A 
ATOM      9  O   UNL     1       0.027  -1.309   0.000  0.00  0.00    -0.453 OA
ATOM     10  C   UNL     1       0.873  -1.823   0.000  0.00  0.00    +0.148 A 
ATOM     11  C   UNL     1       0.873  -2.825   0.000  0.00  0.00    +0.080 A 
ATOM     12  C   UNL     1       0.027  -3.317   0.000  0.00  0.00    +0.205 A 
ATOM     13  O   UNL     1       0.053  -4.319   0.000  0.00  0.00    -0.286 OA
BRANCH  10  14
ATOM     14  C   UNL     1       1.735  -1.336   0.000  0.00  0.00    +0.035 A 
ATOM     15  C   UNL     1       1.746  -0.335   0.000  0.00  0.00    +0.006 A 
ATOM     16  C   UNL     1       2.608   0.169   0.000  0.00  0.00    +0.037 A 
ATOM     17  C   UNL     1       3.459  -0.335   0.000  0.00  0.00    +0.139 A 
ATOM     18  C   UNL     1       3.459  -1.336   0.000  0.00  0.00    +0.037 A 
ATOM     19  C   UNL     1       2.608  -1.823   0.000  0.00  0.00    +0.006 A 
BRANCH  17  20
ATOM     20  O   UNL     1       4.332   0.169   0.000  0.00  0.00    -0.471 OA
ATOM     21  C   UNL     1       5.215  -0.319   0.000  0.00  0.00    +0.252 C 
ENDBRANCH  17  20
ENDBRANCH  10  14
ENDBRANCH   1   6
BRANCH   1  22
ATOM     22  C   UNL     1      -3.459  -0.319   0.000  0.00  0.00    +0.322 C 
ATOM     23  O   UNL     1      -2.608   0.196   0.000  0.00  0.00    -0.316 OA
ATOM     24  C   UNL     1      -2.635   1.197   0.000  0.00  0.00    +0.181 C 
ATOM     25  C   UNL     1      -3.459   1.684   0.000  0.00  0.00    +0.214 C 
ATOM     26  C   UNL     1      -4.332   1.197   0.000  0.00  0.00    +0.221 C 
ATOM     27  O   UNL     1      -3.481   0.694   0.000  0.00  0.00    -0.217 OA
ATOM     28  O   UNL     1      -3.433   2.685   0.000  0.00  0.00    -0.218 OA
ATOM     29  C   UNL     1      -4.332   0.196   0.000  0.00  0.00    +0.254 C 
ATOM     30  O   UNL     1      -5.215  -0.319   0.000  0.00  0.00    -0.213 OA
BRANCH  24  31
ATOM     31  C   UNL     1      -1.746   1.738   0.000  0.00  0.00    +0.177 C 
BRANCH  31  32
ATOM     32  O   UNL     1      -0.873   1.272   0.000  0.00  0.00    -0.326 OA
BRANCH  32  33
ATOM     33  C   UNL     1      -0.027   1.802   0.000  0.00  0.00    +0.269 C 
ATOM     34  O   UNL     1       0.846   1.336   0.000  0.00  0.00    -0.328 OA
ATOM     35  C   UNL     1       1.681   1.877   0.000  0.00  0.00    +0.151 C 
ATOM     36  C   UNL     1       0.744   2.353   0.000  0.00  0.00    +0.035 C 
ATOM     37  C   UNL     1       1.633   2.878   0.000  0.00  0.00    +0.212 C 
ATOM     38  C   UNL     1       0.760   3.317   0.000  0.00  0.00    +0.220 C 
ATOM     39  O   UNL     1       0.734   4.319   0.000  0.00  0.00    -0.217 OA
ATOM     40  O   UNL     1       2.479   3.446   0.000  0.00  0.00    -0.218 OA
ATOM     41  C   UNL     1      -0.075   2.776   0.000  0.00  0.00    +0.241 C 
ATOM     42  O   UNL     1      -0.975   3.242   0.000  0.00  0.00    -0.215 OA
ENDBRANCH  32  33
ENDBRANCH  31  32
ENDBRANCH  24  31
ENDBRANCH   1  22
TORSDOF 7
ENDMDL
MODEL      309
REMARK  Name = 6-({6-[(6-{[3a,9-dihydroxy-9a,11a-dimethyl-1-(5-oxo-2,5-dihydrofuran-3-yl)-hexadecahydro-1H-cyclopenta[a]phenanthren-7-yl]oxy}-4-hydroxy-2-methyloxan-3-yl)oxy]-4-hydroxy-2-methyloxan-3-yl}oxy)-3-hydro xy-2-methyloxan-4-yl acetate
REMARK  9 active torsions:
REMARK  status: ('A' for Active; 'I' for Inactive)
REMARK    1  A    between atoms: C_6  and  C_7
REMARK    2  A    between atoms: C_8  and  O_36
REMARK    3  A    between atoms: C_9  and  O_33
REMARK    4  A    between atoms: C_10  and  O_32
REMARK    5  A    between atoms: C_13  and  O_32
REMARK    6  A    between atoms: C_14  and  O_33
REMARK    7  A    between atoms: C_15  and  O_44
REMARK    8  A    between atoms: O_36  and  C_41
REMARK    9  A    between atoms: C_40  and  O_44
REMARK                            x       y       z     vdW  Elec       q    Type
REMARK                         _______ _______ _______ _____ _____    ______ ____
ROOT
ATOM      1  C   UNL     1       1.007   0.854   0.000  0.00  0.00    +0.238 C 
ATOM      2  C   UNL     1       0.412   0.115   0.000  0.00  0.00    +0.097 C 
ATOM      3  C   UNL     1      -0.739   0.115   0.000  0.00  0.00    +0.186 C 
ATOM      4  O   UNL     1      -0.739  -0.547   0.000  0.00  0.00    -0.220 OA
ATOM      5  C   UNL     1      -1.315   0.854   0.000  0.00  0.00    +0.175 C 
ATOM      6  C   UNL     1      -0.739   1.641   0.000  0.00  0.00    +0.147 C 
ATOM      7  C   UNL     1      -0.758   2.878   0.000  0.00  0.00    +0.035 C 
ATOM      8  O   UNL     1       0.412   1.641   0.000  0.00  0.00    -0.330 OA
ENDROOT
BRANCH   1   9
ATOM      9  O   UNL     1       1.007   1.823   0.000  0.00  0.00    -0.333 OA
BRANCH   9  24
ATOM     10  C   UNL     1       4.576   3.223   0.000  0.00  0.00    +0.123 C 
ATOM     11  O   UNL     1       4.557   2.053   0.000  0.00  0.00    -0.226 OA
ATOM     12  C   UNL     1       5.229   2.993   0.000  0.00  0.00    +0.030 C 
ATOM     13  C   UNL     1       5.612   3.569   0.000  0.00  0.00    +0.007 C 
ATOM     14  C   UNL     1       5.229   4.096   0.000  0.00  0.00    +0.024 C 
ATOM     15  C   UNL     1       3.981   2.907   0.000  0.00  0.00    +0.038 C 
ATOM     16  C   UNL     1       3.981   2.168   0.000  0.00  0.00    -0.002 C 
ATOM     17  C   UNL     1       3.386   1.871   0.000  0.00  0.00    -0.004 C 
ATOM     18  C   UNL     1       2.811   2.168   0.000  0.00  0.00    +0.017 C 
ATOM     19  C   UNL     1       2.811   2.907   0.000  0.00  0.00    +0.021 C 
ATOM     20  C   UNL     1       2.878   6.476   0.000  0.00  0.00    +0.002 C 
ATOM     21  C   UNL     1       2.159   3.223   0.000  0.00  0.00    +0.154 C 
ATOM     22  O   UNL     1       2.139   4.538   0.000  0.00  0.00    -0.223 OA
ATOM     23  C   UNL     1       1.612   2.907   0.000  0.00  0.00    +0.062 C 
ATOM     24  C   UNL     1       1.612   2.168   0.000  0.00  0.00    +0.120 C 
ATOM     25  C   UNL     1       2.159   1.871   0.000  0.00  0.00    +0.026 C 
ATOM     26  C   UNL     1       3.386   3.223   0.000  0.00  0.00    +0.013 C 
ATOM     27  C   UNL     1       3.386   3.943   0.000  0.00  0.00    -0.004 C 
ATOM     28  C   UNL     1       3.981   4.288   0.000  0.00  0.00    +0.002 C 
ATOM     29  C   UNL     1       4.576   3.943   0.000  0.00  0.00    +0.029 C 
ATOM     30  C   UNL     1       4.509   5.161   0.000  0.00  0.00    +0.003 C 
BRANCH  14  31
ATOM     31  C   UNL     1       5.497   5.094   0.000  0.00  0.00    +0.005 C 
ATOM     32  C   UNL     1       6.447   5.459   0.000  0.00  0.00    +0.231 C 
ATOM     33  O   UNL     1       6.447   6.447   0.000  0.00  0.00    -0.441 OA
ATOM     34  C   UNL     1       5.478   6.744   0.000  0.00  0.00    +0.341 C 
ATOM     35  O   UNL     1       5.132   7.761   0.000  0.00  0.00    -0.245 OA
ATOM     36  C   UNL     1       4.854   5.852   0.000  0.00  0.00    +0.077 C 
ENDBRANCH  14  31
ENDBRANCH   9  24
ENDBRANCH   1   9
BRANCH   5  37
ATOM     37  O   UNL     1      -1.315  -0.163   0.000  0.00  0.00    -0.328 OA
BRANCH  37  38
ATOM     38  C   UNL     1      -1.315  -1.103   0.000  0.00  0.00    +0.238 C 
ATOM     39  C   UNL     1      -1.957  -1.890   0.000  0.00  0.00    +0.097 C 
ATOM     40  C   UNL     1      -3.204  -1.890   0.000  0.00  0.00    +0.186 C 
ATOM     41  O   UNL     1      -3.176  -2.734   0.000  0.00  0.00    -0.220 OA
ATOM     42  C   UNL     1      -3.780  -1.103   0.000  0.00  0.00    +0.175 C 
ATOM     43  C   UNL     1      -3.204  -0.250   0.000  0.00  0.00    +0.147 C 
ATOM     44  C   UNL     1      -3.176   0.902   0.000  0.00  0.00    +0.035 C 
ATOM     45  O   UNL     1      -1.957  -0.250   0.000  0.00  0.00    -0.330 OA
BRANCH  42  46
ATOM     46  O   UNL     1      -3.780  -2.533   0.000  0.00  0.00    -0.328 OA
BRANCH  46  47
ATOM     47  C   UNL     1      -3.780  -4.145   0.000  0.00  0.00    +0.239 C 
ATOM     48  C   UNL     1      -4.423  -5.017   0.000  0.00  0.00    +0.108 C 
ATOM     49  C   UNL     1      -5.785  -5.017   0.000  0.00  0.00    +0.206 C 
ATOM     50  C   UNL     1      -6.399  -4.145   0.000  0.00  0.00    +0.219 C 
ATOM     51  C   UNL     1      -5.785  -3.243   0.000  0.00  0.00    +0.152 C 
ATOM     52  C   UNL     1      -5.785  -2.207   0.000  0.00  0.00    +0.035 C 
ATOM     53  O   UNL     1      -6.447  -5.641   0.000  0.00  0.00    -0.217 OA
ATOM     54  O   UNL     1      -4.423  -3.243   0.000  0.00  0.00    -0.330 OA
BRANCH  49  55
ATOM     55  O   UNL     1      -5.785  -6.284   0.000  0.00  0.00    -0.449 OA
BRANCH  55  56
ATOM     56  C   UNL     1      -4.931  -6.763   0.000  0.00  0.00    +0.318 C 
ATOM     57  C   UNL     1      -4.125  -6.284   0.000  0.00  0.00    +0.121 C 
ATOM     58  O   UNL     1      -4.931  -7.761   0.000  0.00  0.00    -0.250 OA
ENDBRANCH  55  56
ENDBRANCH  49  55
ENDBRANCH  46  47
ENDBRANCH  42  46
ENDBRANCH  37  38
ENDBRANCH   5  37
TORSDOF 9
ENDMDL
MODEL      310
REMARK  Name = 2-(3,4-dihydroxyphenyl)-5-hydroxy-7-{[3,4,5-trihydroxy-6-(hydroxymethyl)oxan-2-yl]oxy}-4H-chromen-4-one
REMARK  4 active torsions:
REMARK  status: ('A' for Active; 'I' for Inactive)
REMARK    1  A    between atoms: C_2  and  O_17
REMARK    2  A    between atoms: C_5  and  C_15
REMARK    3  A    between atoms: C_13  and  C_30
REMARK    4  A    between atoms: C_14  and  O_17
REMARK                            x       y       z     vdW  Elec       q    Type
REMARK                         _______ _______ _______ _____ _____    ______ ____
ROOT
ATOM      1  C   UNL     1       1.897  -1.043   0.000  0.00  0.00    +0.113 A 
ATOM      2  C   UNL     1       1.180  -1.447   0.000  0.00  0.00    +0.205 A 
ATOM      3  O   UNL     1       1.180  -2.275   0.000  0.00  0.00    -0.286 OA
ATOM      4  C   UNL     1       0.477  -1.043   0.000  0.00  0.00    +0.079 A 
ATOM      5  C   UNL     1       0.477  -0.210   0.000  0.00  0.00    +0.148 A 
ATOM      6  C   UNL     1       1.180   0.210   0.000  0.00  0.00    +0.075 A 
ATOM      7  C   UNL     1       1.897  -0.210   0.000  0.00  0.00    +0.154 A 
ATOM      8  O   UNL     1       2.600   0.210   0.000  0.00  0.00    -0.453 OA
ATOM      9  C   UNL     1       3.309  -0.210   0.000  0.00  0.00    +0.149 A 
ATOM     10  C   UNL     1       3.309  -1.043   0.000  0.00  0.00    +0.080 A 
ATOM     11  C   UNL     1       2.600  -1.447   0.000  0.00  0.00    +0.205 A 
ATOM     12  O   UNL     1       2.600  -2.275   0.000  0.00  0.00    -0.286 OA
ENDROOT
BRANCH   9  13
ATOM     13  C   UNL     1       4.021   0.210   0.000  0.00  0.00    +0.038 A 
ATOM     14  C   UNL     1       4.729  -0.210   0.000  0.00  0.00    +0.007 A 
ATOM     15  C   UNL     1       5.432   0.210   0.000  0.00  0.00    +0.045 A 
ATOM     16  C   UNL     1       5.432   1.038   0.000  0.00  0.00    +0.234 A 
ATOM     17  C   UNL     1       4.729   1.457   0.000  0.00  0.00    +0.234 A 
ATOM     18  O   UNL     1       4.729   2.275   0.000  0.00  0.00    -0.283 OA
ATOM     19  O   UNL     1       6.159   1.466   0.000  0.00  0.00    -0.283 OA
ATOM     20  C   UNL     1       4.021   1.038   0.000  0.00  0.00    +0.048 A 
ENDBRANCH   9  13
BRANCH   5  21
ATOM     21  O   UNL     1      -0.255   0.229   0.000  0.00  0.00    -0.450 OA
BRANCH  21  22
ATOM     22  C   UNL     1      -1.190  -0.325   0.000  0.00  0.00    +0.322 C 
ATOM     23  O   UNL     1      -2.254   0.995   0.000  0.00  0.00    -0.316 OA
ATOM     24  C   UNL     1      -3.896   0.450   0.000  0.00  0.00    +0.185 C 
ATOM     25  C   UNL     1      -5.153   1.062   0.000  0.00  0.00    +0.215 C 
ATOM     26  C   UNL     1      -4.151  -0.600   0.000  0.00  0.00    +0.221 C 
ATOM     27  O   UNL     1      -4.840  -1.539   0.000  0.00  0.00    -0.217 OA
ATOM     28  O   UNL     1      -6.159   0.518   0.000  0.00  0.00    -0.218 OA
ATOM     29  C   UNL     1      -2.509   0.012   0.000  0.00  0.00    +0.254 C 
ATOM     30  O   UNL     1      -2.509  -1.018   0.000  0.00  0.00    -0.213 OA
BRANCH  24  31
ATOM     31  C   UNL     1      -3.896   1.269   0.000  0.00  0.00    +0.214 C 
ATOM     32  O   UNL     1      -3.212   1.837   0.000  0.00  0.00    -0.218 OA
ENDBRANCH  24  31
ENDBRANCH  21  22
ENDBRANCH   5  21
TORSDOF 4
ENDMDL
MODEL      311
REMARK  Name = 5,9,13-TRIMETHYL-14-OXOTETRACYCLO[11.2.1.0^(1,10).0^(4,9)]HEXADECANE-5-CARBOXYLIC ACID
REMARK  1 active torsions:
REMARK  status: ('A' for Active; 'I' for Inactive)
REMARK    1  A    between atoms: C_5  and  C_9
REMARK                            x       y       z     vdW  Elec       q    Type
REMARK                         _______ _______ _______ _____ _____    ______ ____
ROOT
ATOM      1  C   UNL     1       0.290   0.498   0.000  0.00  0.00    +0.007 C 
ATOM      2  C   UNL     1       0.290  -0.419   0.000  0.00  0.00    +0.000 C 
ATOM      3  C   UNL     1      -0.535  -0.914   0.000  0.00  0.00    -0.003 C 
ATOM      4  C   UNL     1      -1.360  -0.419   0.000  0.00  0.00    +0.023 C 
ATOM      5  C   UNL     1      -1.360   0.498   0.000  0.00  0.00    -0.003 C 
ATOM      6  C   UNL     1      -1.360   1.444   0.000  0.00  0.00    -0.000 C 
ATOM      7  C   UNL     1      -2.165   0.977   0.000  0.00  0.00    -0.000 C 
ATOM      8  C   UNL     1      -2.985   0.498   0.000  0.00  0.00    +0.001 C 
ATOM      9  C   UNL     1      -2.985  -0.419   0.000  0.00  0.00    +0.010 C 
ATOM     10  C   UNL     1      -2.165  -0.927   0.000  0.00  0.00    +0.090 C 
ATOM     11  C   UNL     1      -3.081  -1.523   0.000  0.00  0.00    +0.011 C 
ATOM     12  C   UNL     1       1.227  -0.119   0.000  0.00  0.00    +0.064 C 
ATOM     13  C   UNL     1       2.231   1.240   0.000  0.00  0.00    +0.150 C 
ATOM     14  C   UNL     1       1.085   1.956   0.000  0.00  0.00    +0.052 C 
ATOM     15  C   UNL     1       2.123   2.585   0.000  0.00  0.00    +0.007 C 
ATOM     16  C   UNL     1       0.256   2.385   0.000  0.00  0.00    +0.007 C 
ATOM     17  C   UNL     1      -0.535   1.935   0.000  0.00  0.00    +0.000 C 
ATOM     18  O   UNL     1       3.081   1.390   0.000  0.00  0.00    -0.296 OA
ATOM     19  C   UNL     1       1.094   0.981   0.000  0.00  0.00    +0.007 C 
ATOM     20  C   UNL     1      -0.535   0.977   0.000  0.00  0.00    +0.000 C 
ENDROOT
BRANCH  10  21
ATOM     21  C   UNL     1      -1.685  -1.731   0.000  0.00  0.00    +0.364 C 
ATOM     22  O   UNL     1      -0.681  -1.731   0.000  0.00  0.00    -0.246 OA
ATOM     23  O   UNL     1      -2.181  -2.585   0.000  0.00  0.00    -0.246 OA
ENDBRANCH  10  21
TORSDOF 1
ENDMDL
MODEL      312
REMARK  Name = [5a,5b,8,8,11a-pentamethyl-9-oxo-1-(prop-1-en-2-yl)-icosahydro-1H-cyclopenta[a]chrysen-3a-yl]methyl acetate
REMARK  4 active torsions:
REMARK  status: ('A' for Active; 'I' for Inactive)
REMARK    1  A    between atoms: C_9  and  C_23
REMARK    2  A    between atoms: C_10  and  C_18
REMARK    3  A    between atoms: C_20  and  O_26
REMARK    4  A    between atoms: C_23  and  O_26
REMARK                            x       y       z     vdW  Elec       q    Type
REMARK                         _______ _______ _______ _____ _____    ______ ____
ROOT
ATOM      1  C   UNL     1       0.059  -0.684   0.000  0.00  0.00    +0.000 C 
ATOM      2  C   UNL     1       0.059  -1.642   0.000  0.00  0.00    +0.000 C 
ATOM      3  C   UNL     1       0.911  -1.138   0.000  0.00  0.00    +0.000 C 
ATOM      4  C   UNL     1       1.783  -0.654   0.000  0.00  0.00    +0.004 C 
ATOM      5  C   UNL     1       1.783   0.347   0.000  0.00  0.00    +0.041 C 
ATOM      6  C   UNL     1       0.911   0.850   0.000  0.00  0.00    +0.007 C 
ATOM      7  C   UNL     1       1.151   1.850   0.000  0.00  0.00    +0.018 C 
ATOM      8  C   UNL     1       2.120   1.936   0.000  0.00  0.00    +0.004 C 
ATOM      9  C   UNL     1       2.550   1.028   0.000  0.00  0.00    +0.004 C 
ATOM     10  C   UNL     1       0.059   0.347   0.000  0.00  0.00    +0.000 C 
ATOM     11  C   UNL     1      -0.826   0.832   0.000  0.00  0.00    +0.000 C 
ATOM     12  C   UNL     1      -1.648   0.316   0.000  0.00  0.00    +0.000 C 
ATOM     13  C   UNL     1      -1.648  -0.684   0.000  0.00  0.00    +0.000 C 
ATOM     14  C   UNL     1      -2.519  -1.181   0.000  0.00  0.00    +0.001 C 
ATOM     15  C   UNL     1      -2.519  -2.139   0.000  0.00  0.00    +0.007 C 
ATOM     16  C   UNL     1      -3.372  -2.673   0.000  0.00  0.00    +0.052 C 
ATOM     17  C   UNL     1      -4.329  -3.292   0.000  0.00  0.00    +0.007 C 
ATOM     18  C   UNL     1      -2.857  -3.513   0.000  0.00  0.00    +0.007 C 
ATOM     19  C   UNL     1      -4.244  -2.139   0.000  0.00  0.00    +0.150 C 
ATOM     20  C   UNL     1      -4.244  -1.181   0.000  0.00  0.00    +0.064 C 
ATOM     21  O   UNL     1      -5.256  -2.673   0.000  0.00  0.00    -0.296 OA
ATOM     22  C   UNL     1      -1.648  -2.642   0.000  0.00  0.00    +0.000 C 
ATOM     23  C   UNL     1      -0.782  -2.139   0.000  0.00  0.00    +0.000 C 
ATOM     24  C   UNL     1      -2.519  -0.181   0.000  0.00  0.00    +0.000 C 
ATOM     25  C   UNL     1      -3.372  -0.684   0.000  0.00  0.00    +0.008 C 
ATOM     26  C   UNL     1      -0.782  -1.181   0.000  0.00  0.00    +0.000 C 
ATOM     27  C   UNL     1      -0.794  -0.285   0.000  0.00  0.00    +0.000 C 
ENDROOT
BRANCH   7  28
ATOM     28  C   UNL     1       0.500   2.587   0.000  0.00  0.00    -0.044 C 
ATOM     29  C   UNL     1      -0.469   2.427   0.000  0.00  0.00    +0.026 C 
ATOM     30  C   UNL     1       0.838   3.513   0.000  0.00  0.00    -0.009 C 
ENDBRANCH   7  28
BRANCH   5  31
ATOM     31  C   UNL     1       2.679  -0.181   0.000  0.00  0.00    +0.208 C 
BRANCH  31  32
ATOM     32  O   UNL     1       3.562   0.273   0.000  0.00  0.00    -0.448 OA
BRANCH  32  33
ATOM     33  C   UNL     1       4.391  -0.224   0.000  0.00  0.00    +0.318 C 
ATOM     34  C   UNL     1       4.360  -1.286   0.000  0.00  0.00    +0.121 C 
ATOM     35  O   UNL     1       5.256   0.242   0.000  0.00  0.00    -0.250 OA
ENDBRANCH  32  33
ENDBRANCH  31  32
ENDBRANCH   5  31
TORSDOF 4
ENDMDL
MODEL      313
REMARK  Name = 9-(acetyloxy)-5a,5b,8,8,11a-pentamethyl-1-(prop-1-en-2-yl)-icosahydro-1H-cyclopenta[a]chrysene-3a-carboxylic acid
REMARK  4 active torsions:
REMARK  status: ('A' for Active; 'I' for Inactive)
REMARK    1  A    between atoms: C_4  and  C_11
REMARK    2  A    between atoms: C_10  and  C_22
REMARK    3  A    between atoms: C_12  and  O_23
REMARK    4  A    between atoms: O_23  and  C_24
REMARK                            x       y       z     vdW  Elec       q    Type
REMARK                         _______ _______ _______ _____ _____    ______ ____
ROOT
ATOM      1  C   UNL     1       1.781  -0.691   0.000  0.00  0.00    +0.000 C 
ATOM      2  C   UNL     1       1.781  -1.639   0.000  0.00  0.00    +0.000 C 
ATOM      3  C   UNL     1       2.640  -1.139   0.000  0.00  0.00    +0.001 C 
ATOM      4  C   UNL     1       3.521  -0.654   0.000  0.00  0.00    +0.011 C 
ATOM      5  C   UNL     1       3.521   0.347   0.000  0.00  0.00    +0.094 C 
ATOM      6  C   UNL     1       2.640   0.855   0.000  0.00  0.00    +0.014 C 
ATOM      7  C   UNL     1       2.879   1.856   0.000  0.00  0.00    +0.019 C 
ATOM      8  C   UNL     1       3.865   1.946   0.000  0.00  0.00    +0.005 C 
ATOM      9  C   UNL     1       4.276   1.034   0.000  0.00  0.00    +0.011 C 
ATOM     10  C   UNL     1       1.781   0.347   0.000  0.00  0.00    +0.001 C 
ATOM     11  C   UNL     1       0.907   0.833   0.000  0.00  0.00    +0.000 C 
ATOM     12  C   UNL     1       0.079   0.317   0.000  0.00  0.00    +0.000 C 
ATOM     13  C   UNL     1       0.079  -0.691   0.000  0.00  0.00    +0.000 C 
ATOM     14  C   UNL     1      -0.795  -1.191   0.000  0.00  0.00    +0.000 C 
ATOM     15  C   UNL     1      -0.795  -2.140   0.000  0.00  0.00    +0.003 C 
ATOM     16  C   UNL     1      -1.661  -2.677   0.000  0.00  0.00    +0.037 C 
ATOM     17  C   UNL     1      -2.610  -3.290   0.000  0.00  0.00    +0.004 C 
ATOM     18  C   UNL     1      -1.139  -3.521   0.000  0.00  0.00    +0.004 C 
ATOM     19  C   UNL     1      -2.521  -2.140   0.000  0.00  0.00    +0.169 C 
ATOM     20  C   UNL     1      -2.521  -1.191   0.000  0.00  0.00    +0.044 C 
ATOM     21  C   UNL     1       0.079  -2.640   0.000  0.00  0.00    +0.000 C 
ATOM     22  C   UNL     1       0.937  -2.140   0.000  0.00  0.00    +0.000 C 
ATOM     23  C   UNL     1      -0.795  -0.190   0.000  0.00  0.00    +0.000 C 
ATOM     24  C   UNL     1      -1.661  -0.691   0.000  0.00  0.00    +0.004 C 
ATOM     25  C   UNL     1       0.937  -1.191   0.000  0.00  0.00    +0.000 C 
ATOM     26  C   UNL     1       0.937  -0.295   0.000  0.00  0.00    +0.000 C 
ENDROOT
BRANCH   7  27
ATOM     27  C   UNL     1       2.229   2.588   0.000  0.00  0.00    -0.044 C 
ATOM     28  C   UNL     1       1.266   2.431   0.000  0.00  0.00    +0.026 C 
ATOM     29  C   UNL     1       2.573   3.521   0.000  0.00  0.00    -0.009 C 
ENDBRANCH   7  27
BRANCH   5  30
ATOM     30  C   UNL     1       4.417  -0.190   0.000  0.00  0.00    +0.364 C 
ATOM     31  O   UNL     1       5.299   0.280   0.000  0.00  0.00    -0.246 OA
ATOM     32  O   UNL     1       4.417  -1.176   0.000  0.00  0.00    -0.246 OA
ENDBRANCH   5  30
BRANCH  19  33
ATOM     33  O   UNL     1      -3.544  -2.677   0.000  0.00  0.00    -0.452 OA
BRANCH  33  34
ATOM     34  C   UNL     1      -4.365  -2.125   0.000  0.00  0.00    +0.317 C 
ATOM     35  C   UNL     1      -5.299  -2.521   0.000  0.00  0.00    +0.121 C 
ATOM     36  O   UNL     1      -4.365  -1.139   0.000  0.00  0.00    -0.250 OA
ENDBRANCH  33  34
ENDBRANCH  19  33
TORSDOF 4
ENDMDL
MODEL      314
REMARK  Name = 3a,5a,5b,8,8,11a-hexamethyl-1-(prop-1-en-2-yl)-icosahydro-1H-cyclopenta[a]chrysen-9-ol
REMARK  1 active torsions:
REMARK  status: ('A' for Active; 'I' for Inactive)
REMARK    1  A    between atoms: C_9  and  C_17
REMARK                            x       y       z     vdW  Elec       q    Type
REMARK                         _______ _______ _______ _____ _____    ______ ____
ROOT
ATOM      1  C   UNL     1       1.343  -0.690   0.000  0.00  0.00    +0.000 C 
ATOM      2  C   UNL     1       1.343  -1.638   0.000  0.00  0.00    +0.000 C 
ATOM      3  C   UNL     1       2.202  -1.138   0.000  0.00  0.00    +0.000 C 
ATOM      4  C   UNL     1       3.082  -0.653   0.000  0.00  0.00    +0.000 C 
ATOM      5  C   UNL     1       3.082   0.347   0.000  0.00  0.00    +0.000 C 
ATOM      6  C   UNL     1       2.202   0.854   0.000  0.00  0.00    +0.004 C 
ATOM      7  C   UNL     1       2.441   1.855   0.000  0.00  0.00    +0.018 C 
ATOM      8  C   UNL     1       3.425   1.944   0.000  0.00  0.00    +0.004 C 
ATOM      9  C   UNL     1       3.978  -0.190   0.000  0.00  0.00    +0.000 C 
ATOM     10  C   UNL     1       3.836   1.034   0.000  0.00  0.00    +0.000 C 
ATOM     11  C   UNL     1       1.343   0.347   0.000  0.00  0.00    +0.000 C 
ATOM     12  C   UNL     1       0.470   0.832   0.000  0.00  0.00    +0.000 C 
ATOM     13  C   UNL     1      -0.358   0.317   0.000  0.00  0.00    +0.000 C 
ATOM     14  C   UNL     1      -0.358  -0.690   0.000  0.00  0.00    +0.000 C 
ATOM     15  C   UNL     1      -1.231  -1.190   0.000  0.00  0.00    +0.000 C 
ATOM     16  C   UNL     1      -1.231  -2.138   0.000  0.00  0.00    +0.002 C 
ATOM     17  C   UNL     1      -2.097  -2.675   0.000  0.00  0.00    +0.028 C 
ATOM     18  C   UNL     1      -1.575  -3.519   0.000  0.00  0.00    +0.003 C 
ATOM     19  C   UNL     1      -3.045  -3.288   0.000  0.00  0.00    +0.003 C 
ATOM     20  C   UNL     1      -2.955  -2.138   0.000  0.00  0.00    +0.152 C 
ATOM     21  C   UNL     1      -2.955  -1.190   0.000  0.00  0.00    +0.033 C 
ATOM     22  O   UNL     1      -3.978  -2.675   0.000  0.00  0.00    -0.223 OA
ATOM     23  C   UNL     1      -0.358  -2.638   0.000  0.00  0.00    +0.000 C 
ATOM     24  C   UNL     1       0.500  -2.138   0.000  0.00  0.00    +0.000 C 
ATOM     25  C   UNL     1      -1.231  -0.190   0.000  0.00  0.00    +0.000 C 
ATOM     26  C   UNL     1      -2.097  -0.690   0.000  0.00  0.00    +0.003 C 
ATOM     27  C   UNL     1       0.500  -1.190   0.000  0.00  0.00    +0.000 C 
ATOM     28  C   UNL     1       0.500  -0.295   0.000  0.00  0.00    +0.000 C 
ENDROOT
BRANCH   7  29
ATOM     29  C   UNL     1       1.791   2.586   0.000  0.00  0.00    -0.044 C 
ATOM     30  C   UNL     1       0.828   2.429   0.000  0.00  0.00    +0.026 C 
ATOM     31  C   UNL     1       2.135   3.519   0.000  0.00  0.00    -0.009 C 
ENDBRANCH   7  29
TORSDOF 1
ENDMDL
MODEL      315
REMARK  Name = 9-hydroxy-5a,5b,8,8,11a-pentamethyl-1-(prop-1-en-2-yl)-icosahydro-1H-cyclopenta[a]chrysene-3a-carboxylic acid
REMARK  2 active torsions:
REMARK  status: ('A' for Active; 'I' for Inactive)
REMARK    1  A    between atoms: C_4  and  C_11
REMARK    2  A    between atoms: C_10  and  C_21
REMARK                            x       y       z     vdW  Elec       q    Type
REMARK                         _______ _______ _______ _____ _____    ______ ____
ROOT
ATOM      1  C   UNL     1       0.864  -0.851   0.000  0.00  0.00    +0.000 C 
ATOM      2  C   UNL     1       0.864  -1.720   0.000  0.00  0.00    +0.000 C 
ATOM      3  C   UNL     1       1.750  -1.346   0.000  0.00  0.00    +0.001 C 
ATOM      4  C   UNL     1       2.627  -0.843   0.000  0.00  0.00    +0.011 C 
ATOM      5  C   UNL     1       2.627   0.172   0.000  0.00  0.00    +0.094 C 
ATOM      6  C   UNL     1       1.750   0.688   0.000  0.00  0.00    +0.014 C 
ATOM      7  C   UNL     1       1.935   1.677   0.000  0.00  0.00    +0.019 C 
ATOM      8  C   UNL     1       2.958   1.802   0.000  0.00  0.00    +0.005 C 
ATOM      9  C   UNL     1       3.393   0.873   0.000  0.00  0.00    +0.011 C 
ATOM     10  C   UNL     1       0.864   0.181   0.000  0.00  0.00    +0.001 C 
ATOM     11  C   UNL     1      -0.026   0.697   0.000  0.00  0.00    +0.000 C 
ATOM     12  C   UNL     1      -0.903   0.181   0.000  0.00  0.00    +0.000 C 
ATOM     13  C   UNL     1      -0.903  -0.843   0.000  0.00  0.00    +0.000 C 
ATOM     14  C   UNL     1      -1.789  -1.359   0.000  0.00  0.00    +0.000 C 
ATOM     15  C   UNL     1      -1.789  -2.378   0.000  0.00  0.00    +0.002 C 
ATOM     16  C   UNL     1      -2.675  -2.894   0.000  0.00  0.00    +0.028 C 
ATOM     17  C   UNL     1      -1.935  -3.320   0.000  0.00  0.00    +0.003 C 
ATOM     18  C   UNL     1      -3.410  -3.350   0.000  0.00  0.00    +0.003 C 
ATOM     19  C   UNL     1      -3.565  -2.378   0.000  0.00  0.00    +0.152 C 
ATOM     20  C   UNL     1      -3.565  -1.359   0.000  0.00  0.00    +0.033 C 
ATOM     21  O   UNL     1      -4.434  -2.885   0.000  0.00  0.00    -0.223 OA
ATOM     22  C   UNL     1      -0.903  -2.894   0.000  0.00  0.00    +0.000 C 
ATOM     23  C   UNL     1      -0.026  -2.378   0.000  0.00  0.00    +0.000 C 
ATOM     24  C   UNL     1      -1.789  -0.460   0.000  0.00  0.00    +0.000 C 
ATOM     25  C   UNL     1      -2.675  -0.843   0.000  0.00  0.00    +0.003 C 
ATOM     26  C   UNL     1      -0.026  -1.359   0.000  0.00  0.00    +0.000 C 
ATOM     27  C   UNL     1      -0.013  -0.490   0.000  0.00  0.00    +0.000 C 
ENDROOT
BRANCH   7  28
ATOM     28  C   UNL     1       1.247   2.400   0.000  0.00  0.00    -0.044 C 
ATOM     29  C   UNL     1       0.275   2.172   0.000  0.00  0.00    +0.026 C 
ATOM     30  C   UNL     1       1.522   3.350   0.000  0.00  0.00    -0.009 C 
ENDBRANCH   7  28
BRANCH   5  31
ATOM     31  C   UNL     1       3.587  -0.344   0.000  0.00  0.00    +0.364 C 
ATOM     32  O   UNL     1       3.587  -1.359   0.000  0.00  0.00    -0.246 OA
ATOM     33  O   UNL     1       4.434   0.172   0.000  0.00  0.00    -0.246 OA
ENDBRANCH   5  31
TORSDOF 2
ENDMDL
MODEL      316
REMARK  Name = 9-hydroxy-5a,5b,8,8,11a-pentamethyl-1-(prop-1-en-2-yl)-icosahydro-1H-cyclopenta[a]chrysene-3a-carbaldehyde
REMARK  2 active torsions:
REMARK  status: ('A' for Active; 'I' for Inactive)
REMARK    1  A    between atoms: C_9  and  C_23
REMARK    2  A    between atoms: C_10  and  C_17
REMARK                            x       y       z     vdW  Elec       q    Type
REMARK                         _______ _______ _______ _____ _____    ______ ____
ROOT
ATOM      1  C   UNL     1       0.839  -0.750   0.000  0.00  0.00    +0.000 C 
ATOM      2  C   UNL     1       0.839  -1.602   0.000  0.00  0.00    +0.000 C 
ATOM      3  C   UNL     1       1.713  -1.242   0.000  0.00  0.00    +0.000 C 
ATOM      4  C   UNL     1       2.596  -0.732   0.000  0.00  0.00    +0.007 C 
ATOM      5  C   UNL     1       2.596   0.280   0.000  0.00  0.00    +0.059 C 
ATOM      6  C   UNL     1       1.713   0.794   0.000  0.00  0.00    +0.011 C 
ATOM      7  C   UNL     1       1.886   1.770   0.000  0.00  0.00    +0.019 C 
ATOM      8  C   UNL     1       2.937   1.912   0.000  0.00  0.00    +0.004 C 
ATOM      9  C   UNL     1       3.363   0.972   0.000  0.00  0.00    +0.008 C 
ATOM     10  C   UNL     1       0.839   0.293   0.000  0.00  0.00    +0.001 C 
ATOM     11  C   UNL     1      -0.053   0.803   0.000  0.00  0.00    +0.000 C 
ATOM     12  C   UNL     1      -0.927   0.293   0.000  0.00  0.00    +0.000 C 
ATOM     13  C   UNL     1      -0.927  -0.732   0.000  0.00  0.00    +0.000 C 
ATOM     14  C   UNL     1      -1.810  -1.251   0.000  0.00  0.00    +0.000 C 
ATOM     15  C   UNL     1      -1.810  -2.263   0.000  0.00  0.00    +0.002 C 
ATOM     16  C   UNL     1      -2.698  -2.773   0.000  0.00  0.00    +0.028 C 
ATOM     17  C   UNL     1      -2.107  -3.412   0.000  0.00  0.00    +0.003 C 
ATOM     18  C   UNL     1      -3.474  -3.350   0.000  0.00  0.00    +0.003 C 
ATOM     19  C   UNL     1      -3.590  -2.263   0.000  0.00  0.00    +0.152 C 
ATOM     20  C   UNL     1      -3.590  -1.251   0.000  0.00  0.00    +0.033 C 
ATOM     21  O   UNL     1      -4.450  -2.773   0.000  0.00  0.00    -0.223 OA
ATOM     22  C   UNL     1      -0.927  -2.773   0.000  0.00  0.00    +0.000 C 
ATOM     23  C   UNL     1      -0.053  -2.263   0.000  0.00  0.00    +0.000 C 
ATOM     24  C   UNL     1      -1.810  -0.359   0.000  0.00  0.00    +0.000 C 
ATOM     25  C   UNL     1      -2.698  -0.732   0.000  0.00  0.00    +0.003 C 
ATOM     26  C   UNL     1      -0.053  -1.251   0.000  0.00  0.00    +0.000 C 
ATOM     27  C   UNL     1      -0.044  -0.391   0.000  0.00  0.00    +0.000 C 
ENDROOT
BRANCH   7  28
ATOM     28  C   UNL     1       1.194   2.463   0.000  0.00  0.00    -0.044 C 
ATOM     29  C   UNL     1       0.244   2.219   0.000  0.00  0.00    +0.026 C 
ATOM     30  C   UNL     1       1.438   3.412   0.000  0.00  0.00    -0.009 C 
ENDBRANCH   7  28
BRANCH   5  31
ATOM     31  C   UNL     1       3.554  -0.253   0.000  0.00  0.00    +0.207 C 
ATOM     32  O   UNL     1       4.450   0.164   0.000  0.00  0.00    -0.288 OA
ENDBRANCH   5  31
TORSDOF 2
ENDMDL
MODEL      317
REMARK  Name = 7-hydroxy-2H-chromen-2-one
REMARK  0 active torsions:
REMARK  status: ('A' for Active; 'I' for Inactive)
REMARK                            x       y       z     vdW  Elec       q    Type
REMARK                         _______ _______ _______ _____ _____    ______ ____
ROOT
ATOM      1  O   UNL     1       0.850  -1.005   0.000  0.00  0.00    -0.421 OA
ATOM      2  C   UNL     1       1.704  -0.511   0.000  0.00  0.00    +0.346 A 
ATOM      3  O   UNL     1       2.578  -1.005   0.000  0.00  0.00    -0.244 OA
ATOM      4  C   UNL     1       1.704   0.504   0.000  0.00  0.00    +0.082 A 
ATOM      5  C   UNL     1       0.850   1.005   0.000  0.00  0.00    +0.010 A 
ATOM      6  C   UNL     1      -0.037   0.504   0.000  0.00  0.00    +0.035 A 
ATOM      7  C   UNL     1      -0.931   1.005   0.000  0.00  0.00    +0.006 A 
ATOM      8  C   UNL     1      -1.812   0.504   0.000  0.00  0.00    +0.042 A 
ATOM      9  C   UNL     1      -1.812  -0.511   0.000  0.00  0.00    +0.199 A 
ATOM     10  O   UNL     1      -2.578  -0.924   0.000  0.00  0.00    -0.286 OA
ATOM     11  C   UNL     1      -0.931  -1.005   0.000  0.00  0.00    +0.080 A 
ATOM     12  C   UNL     1      -0.037  -0.511   0.000  0.00  0.00    +0.152 A 
ENDROOT
TORSDOF 0
ENDMDL
MODEL      318
REMARK  Name = butyl 5-{[6-(butoxycarbonyl)-3,4,5-trihydroxyoxan-2-yl]oxy}-6-{[11-(butoxycarbonyl)-4,4,6a,6b,8a,11,14b-heptamethyl-14-oxo-1,2,3,4,4a,5,6,6a,6b,7,8,8a,9,10,11,12,12a,14,14a,14b-icosahydropicen-3-yl]ox y}-3,4-dihydroxyoxane-2-carboxylate
REMARK  19 active torsions:
REMARK  status: ('A' for Active; 'I' for Inactive)
REMARK    1  A    between atoms: C_5  and  O_22
REMARK    2  A    between atoms: C_6  and  C_29
REMARK    3  A    between atoms: C_7  and  C_28
REMARK    4  A    between atoms: C_9  and  O_22
REMARK    5  A    between atoms: C_10  and  O_27
REMARK    6  A    between atoms: C_24  and  C_32
REMARK    7  A    between atoms: O_27  and  C_30
REMARK    8  A    between atoms: C_28  and  O_52
REMARK    9  A    between atoms: C_29  and  O_53
REMARK   10  A    between atoms: C_32  and  O_54
REMARK   11  A    between atoms: O_52  and  C_59
REMARK   12  A    between atoms: O_53  and  C_60
REMARK   13  A    between atoms: O_54  and  C_61
REMARK   14  A    between atoms: C_59  and  C_64
REMARK   15  A    between atoms: C_60  and  C_63
REMARK   16  A    between atoms: C_61  and  C_62
REMARK   17  A    between atoms: C_62  and  C_66
REMARK   18  A    between atoms: C_63  and  C_65
REMARK   19  A    between atoms: C_64  and  C_67
REMARK                            x       y       z     vdW  Elec       q    Type
REMARK                         _______ _______ _______ _____ _____    ______ ____
ROOT
ATOM      1  C   UNL     1       2.647   1.936   0.000  0.00  0.00    -0.042 C 
ATOM      2  C   UNL     1       3.614   2.600   0.000  0.00  0.00    +0.019 C 
ATOM      3  C   UNL     1       4.566   2.054   0.000  0.00  0.00    +0.003 C 
ATOM      4  C   UNL     1       5.634   1.414   0.000  0.00  0.00    +0.000 C 
ATOM      5  C   UNL     1       5.517   2.600   0.000  0.00  0.00    +0.001 C 
ATOM      6  C   UNL     1       5.517   3.694   0.000  0.00  0.00    +0.011 C 
ATOM      7  C   UNL     1       4.566   4.216   0.000  0.00  0.00    +0.090 C 
ATOM      8  C   UNL     1       3.614   4.822   0.000  0.00  0.00    +0.011 C 
ATOM      9  C   UNL     1       4.566   0.943   0.000  0.00  0.00    +0.001 C 
ATOM     10  C   UNL     1       3.614   0.404   0.000  0.00  0.00    +0.004 C 
ATOM     11  C   UNL     1       3.614   3.694   0.000  0.00  0.00    +0.015 C 
ATOM     12  C   UNL     1       1.898   2.398   0.000  0.00  0.00    +0.029 C 
ATOM     13  C   UNL     1       1.149   1.936   0.000  0.00  0.00    +0.172 C 
ATOM     14  O   UNL     1       0.198   2.483   0.000  0.00  0.00    -0.291 OA
ATOM     15  C   UNL     1       1.149   1.044   0.000  0.00  0.00    +0.062 C 
ATOM     16  C   UNL     1       1.898   0.623   0.000  0.00  0.00    +0.010 C 
ATOM     17  C   UNL     1       1.898   1.473   0.000  0.00  0.00    +0.001 C 
ATOM     18  C   UNL     1       1.898  -0.345   0.000  0.00  0.00    +0.001 C 
ATOM     19  C   UNL     1       1.149  -0.833   0.000  0.00  0.00    +0.000 C 
ATOM     20  C   UNL     1       0.383  -0.345   0.000  0.00  0.00    +0.003 C 
ATOM     21  C   UNL     1      -0.425  -0.833   0.000  0.00  0.00    +0.025 C 
ATOM     22  C   UNL     1      -1.191  -0.345   0.000  0.00  0.00    +0.118 C 
ATOM     23  C   UNL     1      -1.191   0.623   0.000  0.00  0.00    +0.030 C 
ATOM     24  C   UNL     1      -0.425   1.044   0.000  0.00  0.00    +0.003 C 
ATOM     25  C   UNL     1       0.240  -1.742   0.000  0.00  0.00    +0.002 C 
ATOM     26  C   UNL     1      -0.972  -1.919   0.000  0.00  0.00    +0.002 C 
ATOM     27  C   UNL     1       0.383   0.623   0.000  0.00  0.00    +0.007 C 
ATOM     28  C   UNL     1       0.383   1.532   0.000  0.00  0.00    +0.000 C 
ATOM     29  C   UNL     1       2.647   1.044   0.000  0.00  0.00    +0.016 C 
ATOM     30  C   UNL     1       2.664   0.017   0.000  0.00  0.00    +0.004 C 
ENDROOT
BRANCH   7  31
ATOM     31  C   UNL     1       5.474   4.847   0.000  0.00  0.00    +0.316 C 
ATOM     32  O   UNL     1       5.474   6.017   0.000  0.00  0.00    -0.250 OA
BRANCH  31  33
ATOM     33  O   UNL     1       6.543   4.216   0.000  0.00  0.00    -0.449 OA
BRANCH  33  34
ATOM     34  C   UNL     1       7.393   4.763   0.000  0.00  0.00    +0.208 C 
BRANCH  34  35
ATOM     35  C   UNL     1       7.351   5.756   0.000  0.00  0.00    +0.047 C 
BRANCH  35  36
ATOM     36  C   UNL     1       8.159   6.278   0.000  0.00  0.00    +0.004 C 
ATOM     37  C   UNL     1       8.117   7.271   0.000  0.00  0.00    +0.000 C 
ENDBRANCH  35  36
ENDBRANCH  34  35
ENDBRANCH  33  34
ENDBRANCH  31  33
ENDBRANCH   7  31
BRANCH  22  38
ATOM     38  O   UNL     1      -2.058  -0.833   0.000  0.00  0.00    -0.331 OA
BRANCH  38  39
ATOM     39  C   UNL     1      -2.058  -2.003   0.000  0.00  0.00    +0.267 C 
ATOM     40  O   UNL     1      -2.705  -1.178   0.000  0.00  0.00    -0.317 OA
ATOM     41  C   UNL     1      -3.901  -1.178   0.000  0.00  0.00    +0.249 C 
ATOM     42  C   UNL     1      -4.548  -2.003   0.000  0.00  0.00    +0.223 C 
ATOM     43  C   UNL     1      -3.901  -2.769   0.000  0.00  0.00    +0.217 C 
ATOM     44  O   UNL     1      -3.901  -1.944   0.000  0.00  0.00    -0.217 OA
ATOM     45  O   UNL     1      -4.523  -2.929   0.000  0.00  0.00    -0.217 OA
ATOM     46  C   UNL     1      -2.705  -2.769   0.000  0.00  0.00    +0.207 C 
BRANCH  41  47
ATOM     47  C   UNL     1      -3.901  -0.673   0.000  0.00  0.00    +0.347 C 
ATOM     48  O   UNL     1      -3.295  -0.303   0.000  0.00  0.00    -0.247 OA
BRANCH  47  49
ATOM     49  O   UNL     1      -4.405  -0.404   0.000  0.00  0.00    -0.447 OA
BRANCH  49  50
ATOM     50  C   UNL     1      -4.405   0.564   0.000  0.00  0.00    +0.209 C 
BRANCH  50  51
ATOM     51  C   UNL     1      -5.255   1.069   0.000  0.00  0.00    +0.047 C 
BRANCH  51  52
ATOM     52  C   UNL     1      -5.255   2.054   0.000  0.00  0.00    +0.004 C 
ATOM     53  C   UNL     1      -6.097   2.542   0.000  0.00  0.00    +0.000 C 
ENDBRANCH  51  52
ENDBRANCH  50  51
ENDBRANCH  49  50
ENDBRANCH  47  49
ENDBRANCH  41  47
BRANCH  46  54
ATOM     54  O   UNL     1      -2.689  -4.140   0.000  0.00  0.00    -0.323 OA
BRANCH  54  55
ATOM     55  C   UNL     1      -2.689  -5.621   0.000  0.00  0.00    +0.270 C 
ATOM     56  C   UNL     1      -3.311  -6.446   0.000  0.00  0.00    +0.241 C 
ATOM     57  O   UNL     1      -3.311  -7.271   0.000  0.00  0.00    -0.215 OA
ATOM     58  C   UNL     1      -4.481  -6.446   0.000  0.00  0.00    +0.220 C 
ATOM     59  O   UNL     1      -4.481  -5.621   0.000  0.00  0.00    -0.217 OA
ATOM     60  C   UNL     1      -5.171  -5.621   0.000  0.00  0.00    +0.223 C 
ATOM     61  C   UNL     1      -4.481  -4.788   0.000  0.00  0.00    +0.249 C 
ATOM     62  O   UNL     1      -5.171  -6.665   0.000  0.00  0.00    -0.217 OA
ATOM     63  O   UNL     1      -3.311  -4.788   0.000  0.00  0.00    -0.317 OA
BRANCH  61  64
ATOM     64  C   UNL     1      -4.481  -4.267   0.000  0.00  0.00    +0.347 C 
ATOM     65  O   UNL     1      -3.859  -3.678   0.000  0.00  0.00    -0.247 OA
BRANCH  64  66
ATOM     66  O   UNL     1      -5.213  -3.880   0.000  0.00  0.00    -0.447 OA
BRANCH  66  67
ATOM     67  C   UNL     1      -6.198  -3.880   0.000  0.00  0.00    +0.209 C 
BRANCH  67  68
ATOM     68  C   UNL     1      -6.686  -4.729   0.000  0.00  0.00    +0.047 C 
BRANCH  68  69
ATOM     69  C   UNL     1      -7.654  -4.729   0.000  0.00  0.00    +0.004 C 
ATOM     70  C   UNL     1      -8.159  -5.580   0.000  0.00  0.00    +0.000 C 
ENDBRANCH  68  69
ENDBRANCH  67  68
ENDBRANCH  66  67
ENDBRANCH  64  66
ENDBRANCH  61  64
ENDBRANCH  54  55
ENDBRANCH  46  54
ENDBRANCH  38  39
ENDBRANCH  22  38
TORSDOF 19
ENDMDL
MODEL      319
REMARK  Name = methyl 10-{[6-(hydrazinecarbonyl)-3-{[6-(hydrazinecarbonyl)-3,4,5-trihydroxyoxan-2-yl]oxy}-4,5-dihydroxyoxan-2-yl]oxy}-2,4a,6a,6b,9,9,12a-heptamethyl-13-oxo-1,2,3,4,4a,5,6,6a,6b,7,8,8a,9,10,11,12,12a, 12b,13,14b-icosahydropicene-2-carboxylate
REMARK  8 active torsions:
REMARK  status: ('A' for Active; 'I' for Inactive)
REMARK    1  A    between atoms: C_5  and  C_24
REMARK    2  A    between atoms: C_6  and  C_25
REMARK    3  A    between atoms: C_7  and  O_22
REMARK    4  A    between atoms: C_9  and  O_22
REMARK    5  A    between atoms: C_10  and  O_29
REMARK    6  A    between atoms: C_26  and  C_32
REMARK    7  A    between atoms: O_29  and  C_30
REMARK    8  A    between atoms: C_32  and  O_54
REMARK                            x       y       z     vdW  Elec       q    Type
REMARK                         _______ _______ _______ _____ _____    ______ ____
ROOT
ATOM      1  C   UNL     1       2.044   2.556   0.000  0.00  0.00    -0.042 C 
ATOM      2  C   UNL     1       3.010   3.219   0.000  0.00  0.00    +0.019 C 
ATOM      3  C   UNL     1       3.958   2.674   0.000  0.00  0.00    +0.003 C 
ATOM      4  C   UNL     1       5.024   2.036   0.000  0.00  0.00    +0.000 C 
ATOM      5  C   UNL     1       4.907   3.219   0.000  0.00  0.00    +0.001 C 
ATOM      6  C   UNL     1       4.907   4.311   0.000  0.00  0.00    +0.011 C 
ATOM      7  C   UNL     1       3.958   4.831   0.000  0.00  0.00    +0.090 C 
ATOM      8  C   UNL     1       3.010   5.436   0.000  0.00  0.00    +0.011 C 
ATOM      9  C   UNL     1       3.958   1.566   0.000  0.00  0.00    +0.001 C 
ATOM     10  C   UNL     1       3.010   1.028   0.000  0.00  0.00    +0.004 C 
ATOM     11  C   UNL     1       3.010   4.311   0.000  0.00  0.00    +0.015 C 
ATOM     12  C   UNL     1       1.297   3.018   0.000  0.00  0.00    +0.029 C 
ATOM     13  C   UNL     1       0.550   2.556   0.000  0.00  0.00    +0.172 C 
ATOM     14  O   UNL     1      -0.399   3.102   0.000  0.00  0.00    -0.291 OA
ATOM     15  C   UNL     1       0.550   1.666   0.000  0.00  0.00    +0.062 C 
ATOM     16  C   UNL     1       1.297   1.247   0.000  0.00  0.00    +0.010 C 
ATOM     17  C   UNL     1       1.297   2.095   0.000  0.00  0.00    +0.001 C 
ATOM     18  C   UNL     1       1.297   0.281   0.000  0.00  0.00    +0.001 C 
ATOM     19  C   UNL     1       0.550  -0.206   0.000  0.00  0.00    +0.000 C 
ATOM     20  C   UNL     1      -0.214   0.281   0.000  0.00  0.00    +0.003 C 
ATOM     21  C   UNL     1      -1.020  -0.206   0.000  0.00  0.00    +0.025 C 
ATOM     22  C   UNL     1      -1.784   0.281   0.000  0.00  0.00    +0.118 C 
ATOM     23  C   UNL     1      -1.784   1.247   0.000  0.00  0.00    +0.030 C 
ATOM     24  C   UNL     1      -1.020   1.666   0.000  0.00  0.00    +0.003 C 
ATOM     25  C   UNL     1      -1.566  -1.289   0.000  0.00  0.00    +0.002 C 
ATOM     26  C   UNL     1      -0.357  -1.112   0.000  0.00  0.00    +0.002 C 
ATOM     27  C   UNL     1      -0.214   1.247   0.000  0.00  0.00    +0.007 C 
ATOM     28  C   UNL     1      -0.214   2.153   0.000  0.00  0.00    +0.000 C 
ATOM     29  C   UNL     1       2.044   1.666   0.000  0.00  0.00    +0.016 C 
ATOM     30  C   UNL     1       2.061   0.642   0.000  0.00  0.00    +0.004 C 
ENDROOT
BRANCH   7  31
ATOM     31  C   UNL     1       4.865   5.461   0.000  0.00  0.00    +0.316 C 
ATOM     32  O   UNL     1       4.865   6.628   0.000  0.00  0.00    -0.250 OA
BRANCH  31  33
ATOM     33  O   UNL     1       5.931   4.831   0.000  0.00  0.00    -0.444 OA
ATOM     34  C   UNL     1       6.779   5.377   0.000  0.00  0.00    +0.256 C 
ENDBRANCH  31  33
ENDBRANCH   7  31
BRANCH  22  35
ATOM     35  O   UNL     1      -2.649  -0.206   0.000  0.00  0.00    -0.331 OA
BRANCH  35  36
ATOM     36  C   UNL     1      -2.649  -1.373   0.000  0.00  0.00    +0.266 C 
ATOM     37  O   UNL     1      -3.295  -0.550   0.000  0.00  0.00    -0.319 OA
ATOM     38  C   UNL     1      -4.487  -0.550   0.000  0.00  0.00    +0.229 C 
ATOM     39  C   UNL     1      -5.133  -1.373   0.000  0.00  0.00    +0.221 C 
ATOM     40  C   UNL     1      -4.487  -2.136   0.000  0.00  0.00    +0.217 C 
ATOM     41  O   UNL     1      -4.487  -1.314   0.000  0.00  0.00    -0.217 OA
ATOM     42  O   UNL     1      -5.108  -2.296   0.000  0.00  0.00    -0.217 OA
ATOM     43  C   UNL     1      -3.295  -2.136   0.000  0.00  0.00    +0.207 C 
BRANCH  38  44
ATOM     44  C   UNL     1      -4.487  -0.046   0.000  0.00  0.00    +0.289 C 
ATOM     45  N   UNL     1      -4.991   0.222   0.000  0.00  0.00    -0.090 NA
ATOM     46  N   UNL     1      -4.991   1.188   0.000  0.00  0.00    +0.007 NA
ATOM     47  O   UNL     1      -3.883   0.323   0.000  0.00  0.00    -0.269 OA
ENDBRANCH  38  44
BRANCH  43  48
ATOM     48  O   UNL     1      -3.278  -3.505   0.000  0.00  0.00    -0.323 OA
BRANCH  48  49
ATOM     49  C   UNL     1      -3.278  -4.982   0.000  0.00  0.00    +0.270 C 
ATOM     50  C   UNL     1      -3.899  -5.805   0.000  0.00  0.00    +0.241 C 
ATOM     51  O   UNL     1      -3.899  -6.628   0.000  0.00  0.00    -0.215 OA
ATOM     52  C   UNL     1      -5.066  -5.805   0.000  0.00  0.00    +0.220 C 
ATOM     53  O   UNL     1      -5.066  -4.982   0.000  0.00  0.00    -0.217 OA
ATOM     54  C   UNL     1      -5.755  -4.982   0.000  0.00  0.00    +0.221 C 
ATOM     55  C   UNL     1      -5.066  -4.151   0.000  0.00  0.00    +0.229 C 
ATOM     56  O   UNL     1      -5.755  -6.023   0.000  0.00  0.00    -0.217 OA
ATOM     57  O   UNL     1      -3.899  -4.151   0.000  0.00  0.00    -0.319 OA
BRANCH  55  58
ATOM     58  C   UNL     1      -5.066  -3.631   0.000  0.00  0.00    +0.289 C 
ATOM     59  N   UNL     1      -5.796  -3.244   0.000  0.00  0.00    -0.090 NA
ATOM     60  N   UNL     1      -6.779  -3.244   0.000  0.00  0.00    +0.007 NA
ATOM     61  O   UNL     1      -4.445  -3.043   0.000  0.00  0.00    -0.269 OA
ENDBRANCH  55  58
ENDBRANCH  48  49
ENDBRANCH  43  48
ENDBRANCH  35  36
ENDBRANCH  22  35
TORSDOF 8
ENDMDL
MODEL      320
REMARK  Name = methyl (10E)-10-[(3-iodophenyl)methylidene]-5a,5b,8,8,11a-pentamethyl-9-oxo-1-(prop-1-en-2-yl)-icosahydro-1H-cyclopenta[a]chrysene-3a-carboxylate
REMARK  4 active torsions:
REMARK  status: ('A' for Active; 'I' for Inactive)
REMARK    1  A    between atoms: C_4  and  C_15
REMARK    2  A    between atoms: C_13  and  C_24
REMARK    3  A    between atoms: C_14  and  C_26
REMARK    4  A    between atoms: C_15  and  O_33
REMARK                            x       y       z     vdW  Elec       q    Type
REMARK                         _______ _______ _______ _____ _____    ______ ____
ROOT
ATOM      1  C   UNL     1      -0.895  -1.194   0.000  0.00  0.00    +0.005 C 
ATOM      2  C   UNL     1      -0.895  -0.191   0.000  0.00  0.00    +0.000 C 
ATOM      3  C   UNL     1      -1.764  -0.693   0.000  0.00  0.00    +0.029 C 
ATOM      4  C   UNL     1      -2.625  -1.194   0.000  0.00  0.00    +0.012 C 
ATOM      5  C   UNL     1      -3.486  -0.745   0.000  0.00  0.00    -0.001 C 
ATOM      6  C   UNL     1      -2.625  -2.146   0.000  0.00  0.00    +0.168 C 
ATOM      7  C   UNL     1      -1.764  -2.685   0.000  0.00  0.00    +0.055 C 
ATOM      8  C   UNL     1      -1.240  -3.531   0.000  0.00  0.00    +0.008 C 
ATOM      9  C   UNL     1      -2.715  -3.299   0.000  0.00  0.00    +0.008 C 
ATOM     10  O   UNL     1      -3.651  -2.685   0.000  0.00  0.00    -0.292 OA
ATOM     11  C   UNL     1      -0.895  -2.146   0.000  0.00  0.00    +0.007 C 
ATOM     12  C   UNL     1      -0.019  -2.648   0.000  0.00  0.00    +0.000 C 
ATOM     13  C   UNL     1       0.843  -2.146   0.000  0.00  0.00    +0.000 C 
ATOM     14  C   UNL     1       0.843  -1.194   0.000  0.00  0.00    +0.000 C 
ATOM     15  C   UNL     1       0.843  -0.296   0.000  0.00  0.00    +0.000 C 
ATOM     16  C   UNL     1       1.689  -0.693   0.000  0.00  0.00    +0.000 C 
ATOM     17  C   UNL     1       1.689   0.348   0.000  0.00  0.00    +0.001 C 
ATOM     18  C   UNL     1       0.813   0.835   0.000  0.00  0.00    +0.000 C 
ATOM     19  C   UNL     1      -0.019   0.318   0.000  0.00  0.00    +0.000 C 
ATOM     20  C   UNL     1       2.550   0.858   0.000  0.00  0.00    +0.014 C 
ATOM     21  C   UNL     1       2.790   1.861   0.000  0.00  0.00    +0.019 C 
ATOM     22  C   UNL     1       3.779   1.951   0.000  0.00  0.00    +0.005 C 
ATOM     23  C   UNL     1       4.191   1.037   0.000  0.00  0.00    +0.011 C 
ATOM     24  C   UNL     1       3.434   0.348   0.000  0.00  0.00    +0.090 C 
ATOM     25  C   UNL     1       3.434  -0.655   0.000  0.00  0.00    +0.011 C 
ATOM     26  C   UNL     1       1.689  -1.644   0.000  0.00  0.00    +0.000 C 
ATOM     27  C   UNL     1       2.550  -1.142   0.000  0.00  0.00    +0.001 C 
ATOM     28  C   UNL     1      -0.019  -0.693   0.000  0.00  0.00    +0.000 C 
ENDROOT
BRANCH   5  29
ATOM     29  C   UNL     1      -3.486   0.243   0.000  0.00  0.00    +0.000 A 
ATOM     30  C   UNL     1      -2.625   0.745   0.000  0.00  0.00    +0.000 A 
ATOM     31  C   UNL     1      -2.625   1.756   0.000  0.00  0.00    +0.000 A 
ATOM     32  C   UNL     1      -3.449   2.236   0.000  0.00  0.00    +0.006 A 
ATOM     33  C   UNL     1      -4.333   1.734   0.000  0.00  0.00    +0.030 A 
ATOM     34  I   UNL     1      -5.194   2.221   0.000  0.00  0.00    -0.043 I 
ATOM     35  C   UNL     1      -4.333   0.730   0.000  0.00  0.00    +0.006 A 
ENDBRANCH   5  29
BRANCH  21  36
ATOM     36  C   UNL     1       2.138   2.595   0.000  0.00  0.00    -0.044 C 
ATOM     37  C   UNL     1       1.172   2.438   0.000  0.00  0.00    +0.026 C 
ATOM     38  C   UNL     1       2.483   3.531   0.000  0.00  0.00    -0.009 C 
ENDBRANCH  21  36
BRANCH  24  39
ATOM     39  C   UNL     1       4.333  -0.191   0.000  0.00  0.00    +0.316 C 
ATOM     40  O   UNL     1       4.348  -1.180   0.000  0.00  0.00    -0.250 OA
BRANCH  39  41
ATOM     41  O   UNL     1       5.194   0.296   0.000  0.00  0.00    -0.444 OA
ATOM     42  C   UNL     1       5.194   1.284   0.000  0.00  0.00    +0.256 C 
ENDBRANCH  39  41
ENDBRANCH  24  39
TORSDOF 4
ENDMDL
MODEL      321
REMARK  Name = 12-ethyl-10-methyl-8,14-diazapentacyclo[9.5.2.0~1,9~.0~2,7~.0~14,17~]octadeca-2(7),3,5-triene
REMARK  1 active torsions:
REMARK  status: ('A' for Active; 'I' for Inactive)
REMARK    1  A    between atoms: C_13  and  C_18
REMARK                            x       y       z     vdW  Elec       q    Type
REMARK                         _______ _______ _______ _____ _____    ______ ____
ROOT
ATOM      1  C   UNL     1      -0.475   0.152   0.000  0.00  0.00    +0.053 C 
ATOM      2  C   UNL     1      -1.251   0.620   0.000  0.00  0.00    +0.024 C 
ATOM      3  C   UNL     1      -1.032   1.529   0.000  0.00  0.00    +0.072 C 
ATOM      4  N   UNL     1      -0.143   1.589   0.000  0.00  0.00    -0.274 NA
ATOM      5  C   UNL     1       2.871   0.842   0.000  0.00  0.00    +0.072 C 
ATOM      6  C   UNL     1       2.495  -0.046   0.000  0.00  0.00    +0.016 C 
ATOM      7  C   UNL     1       1.597  -0.046   0.000  0.00  0.00    +0.004 C 
ATOM      8  C   UNL     1       0.958  -0.567   0.000  0.00  0.00    +0.020 C 
ATOM      9  C   UNL     1       1.455  -1.340   0.000  0.00  0.00    +0.002 C 
ATOM     10  C   UNL     1       1.144   0.756   0.000  0.00  0.00    +0.016 C 
ATOM     11  C   UNL     1      -1.358  -0.126   0.000  0.00  0.00    -0.005 A 
ATOM     12  C   UNL     1      -2.160   0.345   0.000  0.00  0.00    -0.003 A 
ATOM     13  C   UNL     1      -2.936  -0.126   0.000  0.00  0.00    -0.000 A 
ATOM     14  C   UNL     1      -2.936  -1.041   0.000  0.00  0.00    +0.001 A 
ATOM     15  C   UNL     1      -2.160  -1.512   0.000  0.00  0.00    +0.016 A 
ATOM     16  C   UNL     1      -1.358  -1.065   0.000  0.00  0.00    +0.061 A 
ATOM     17  N   UNL     1      -0.475  -1.340   0.000  0.00  0.00    -0.239 NA
ATOM     18  C   UNL     1       0.212   0.756   0.000  0.00  0.00    +0.063 C 
ATOM     19  C   UNL     1       0.049  -0.567   0.000  0.00  0.00    +0.097 C 
ENDROOT
BRANCH   6  20
ATOM     20  C   UNL     1       2.936  -0.816   0.000  0.00  0.00    +0.001 C 
ATOM     21  C   UNL     1       2.480  -1.589   0.000  0.00  0.00    +0.000 C 
ENDBRANCH   6  20
TORSDOF 1
ENDMDL
MODEL      322
REMARK  Name = methyl 20-methyl-8,16-diazahexacyclo[10.6.1.1~9,12~.0~1,9~.0~2,7~.0~16,19~]icosa-2(7),3,5,13-tetraene-10-carboxylate
REMARK  2 active torsions:
REMARK  status: ('A' for Active; 'I' for Inactive)
REMARK    1  A    between atoms: C_4  and  C_12
REMARK    2  A    between atoms: C_12  and  O_19
REMARK                            x       y       z     vdW  Elec       q    Type
REMARK                         _______ _______ _______ _____ _____    ______ ____
ROOT
ATOM      1  C   UNL     1       0.382   0.186   0.000  0.00  0.00    +0.091 C 
ATOM      2  C   UNL     1       0.897   1.043   0.000  0.00  0.00    +0.024 C 
ATOM      3  C   UNL     1       1.142   0.517   0.000  0.00  0.00    +0.002 C 
ATOM      4  C   UNL     1       1.958   1.119   0.000  0.00  0.00    +0.034 C 
ATOM      5  C   UNL     1       1.178   1.573   0.000  0.00  0.00    +0.067 C 
ATOM      6  N   UNL     1       1.147   2.572   0.000  0.00  0.00    -0.270 NA
ATOM      7  C   UNL     1      -0.367   2.628   0.000  0.00  0.00    +0.073 C 
ATOM      8  C   UNL     1      -0.413   1.593   0.000  0.00  0.00    +0.024 C 
ATOM      9  C   UNL     1       1.983   3.061   0.000  0.00  0.00    +0.099 C 
ATOM     10  C   UNL     1       2.830   2.567   0.000  0.00  0.00    -0.013 C 
ATOM     11  C   UNL     1       1.958   0.186   0.000  0.00  0.00    +0.018 C 
ATOM     12  C   UNL     1       2.830   1.588   0.000  0.00  0.00    -0.029 C 
ATOM     13  N   UNL     1      -0.444  -0.263   0.000  0.00  0.00    -0.240 NA
ATOM     14  C   UNL     1      -1.239   0.186   0.000  0.00  0.00    +0.061 A 
ATOM     15  C   UNL     1      -1.239   1.119   0.000  0.00  0.00    -0.005 A 
ATOM     16  C   UNL     1      -2.034   1.573   0.000  0.00  0.00    -0.003 A 
ATOM     17  C   UNL     1      -2.830   1.119   0.000  0.00  0.00    -0.000 A 
ATOM     18  C   UNL     1      -2.830   0.186   0.000  0.00  0.00    +0.001 A 
ATOM     19  C   UNL     1      -2.034  -0.263   0.000  0.00  0.00    +0.016 A 
ATOM     20  C   UNL     1       1.178  -0.263   0.000  0.00  0.00    +0.118 C 
ATOM     21  C   UNL     1       0.382   1.119   0.000  0.00  0.00    +0.052 C 
ENDROOT
BRANCH  20  22
ATOM     22  C   UNL     1       1.178  -1.649   0.000  0.00  0.00    +0.318 C 
ATOM     23  O   UNL     1       0.321  -2.144   0.000  0.00  0.00    -0.250 OA
BRANCH  22  24
ATOM     24  O   UNL     1       2.172  -2.037   0.000  0.00  0.00    -0.444 OA
ATOM     25  C   UNL     1       2.218  -3.061   0.000  0.00  0.00    +0.256 C 
ENDBRANCH  22  24
ENDBRANCH  20  22
TORSDOF 2
ENDMDL
MODEL      323
REMARK  Name = 1-[(E)-[(4-nitrophenyl)imino]methyl]naphthalen-2-ol
REMARK  3 active torsions:
REMARK  status: ('A' for Active; 'I' for Inactive)
REMARK    1  A    between atoms: N_1  and  C_6
REMARK    2  A    between atoms: C_2  and  C_3
REMARK    3  A    between atoms: N_5  and  C_15
REMARK                            x       y       z     vdW  Elec       q    Type
REMARK                         _______ _______ _______ _____ _____    ______ ____
ROOT
ATOM      1  N   UNL     1      -0.417  -0.487   0.000  0.00  0.00    -0.244 NA
ATOM      2  C   UNL     1       0.441  -0.984   0.000  0.00  0.00    +0.102 C 
ENDROOT
BRANCH   2   3
ATOM      3  C   UNL     1       0.441  -1.982   0.000  0.00  0.00    +0.058 A 
ATOM      4  C   UNL     1       1.295  -2.479   0.000  0.00  0.00    +0.197 A 
ATOM      5  O   UNL     1       2.163  -1.982   0.000  0.00  0.00    -0.287 OA
ATOM      6  C   UNL     1       1.295  -3.497   0.000  0.00  0.00    +0.042 A 
ATOM      7  C   UNL     1       0.441  -3.994   0.000  0.00  0.00    +0.003 A 
ATOM      8  C   UNL     1      -0.427  -3.497   0.000  0.00  0.00    +0.000 A 
ATOM      9  C   UNL     1      -1.295  -3.994   0.000  0.00  0.00    +0.000 A 
ATOM     10  C   UNL     1      -2.163  -3.497   0.000  0.00  0.00    +0.000 A 
ATOM     11  C   UNL     1      -2.163  -2.479   0.000  0.00  0.00    +0.000 A 
ATOM     12  C   UNL     1      -1.295  -1.982   0.000  0.00  0.00    +0.000 A 
ATOM     13  C   UNL     1      -0.427  -2.479   0.000  0.00  0.00    +0.005 A 
ENDBRANCH   2   3
BRANCH   1  17
ATOM     14  C   UNL     1      -0.417   2.522   0.000  0.00  0.00    +0.290 A 
ATOM     15  C   UNL     1       0.441   2.011   0.000  0.00  0.00    +0.077 A 
ATOM     16  C   UNL     1       0.441   0.994   0.000  0.00  0.00    +0.025 A 
ATOM     17  C   UNL     1      -0.417   0.506   0.000  0.00  0.00    +0.082 A 
ATOM     18  C   UNL     1      -1.285   1.003   0.000  0.00  0.00    +0.025 A 
ATOM     19  C   UNL     1      -1.285   2.011   0.000  0.00  0.00    +0.077 A 
BRANCH  14  20
ATOM     20  N   UNL     1      -0.417   3.516   0.000  0.00  0.00    +0.081 N 
ATOM     21  O   UNL     1      -1.285   3.994   0.000  0.00  0.00    +0.041 OA
ATOM     22  O   UNL     1       0.441   3.994   0.000  0.00  0.00    -0.576 OA
ENDBRANCH  14  20
ENDBRANCH   1  17
TORSDOF 3
ENDMDL
MODEL      324
REMARK  Name = 2-{4-methoxy-2H,3H-furo[2,3-b]quinolin-2-yl}propane-1,2-diol
REMARK  3 active torsions:
REMARK  status: ('A' for Active; 'I' for Inactive)
REMARK    1  A    between atoms: C_4  and  O_11
REMARK    2  A    between atoms: C_7  and  C_10
REMARK    3  A    between atoms: C_10  and  C_13
REMARK                            x       y       z     vdW  Elec       q    Type
REMARK                         _______ _______ _______ _____ _____    ______ ____
ROOT
ATOM      1  C   UNL     1      -0.030  -0.238   0.000  0.00  0.00    +0.069 A 
ATOM      2  C   UNL     1       0.920   0.066   0.000  0.00  0.00    +0.080 C 
ATOM      3  C   UNL     1       1.501  -0.748   0.000  0.00  0.00    +0.202 C 
ATOM      4  O   UNL     1       0.920  -1.552   0.000  0.00  0.00    -0.461 OA
ATOM      5  C   UNL     1      -0.900   0.263   0.000  0.00  0.00    +0.141 A 
ATOM      6  C   UNL     1      -1.769  -0.238   0.000  0.00  0.00    +0.052 A 
ATOM      7  C   UNL     1      -2.628   0.263   0.000  0.00  0.00    +0.005 A 
ATOM      8  C   UNL     1      -3.502  -0.248   0.000  0.00  0.00    +0.000 A 
ATOM      9  C   UNL     1      -3.502  -1.238   0.000  0.00  0.00    +0.002 A 
ATOM     10  C   UNL     1      -2.628  -1.738   0.000  0.00  0.00    +0.019 A 
ATOM     11  C   UNL     1      -1.769  -1.238   0.000  0.00  0.00    +0.087 A 
ATOM     12  N   UNL     1      -0.900  -1.738   0.000  0.00  0.00    -0.212 NA
ATOM     13  C   UNL     1      -0.030  -1.238   0.000  0.00  0.00    +0.224 A 
ENDROOT
BRANCH   3  14
ATOM     14  C   UNL     1       2.502  -0.753   0.000  0.00  0.00    +0.194 C 
ATOM     15  C   UNL     1       2.502  -1.754   0.000  0.00  0.00    +0.039 C 
ATOM     16  O   UNL     1       3.502  -0.753   0.000  0.00  0.00    -0.219 OA
BRANCH  14  17
ATOM     17  C   UNL     1       2.512   0.248   0.000  0.00  0.00    +0.216 C 
ATOM     18  O   UNL     1       3.376   0.748   0.000  0.00  0.00    -0.218 OA
ENDBRANCH  14  17
ENDBRANCH   3  14
BRANCH   5  19
ATOM     19  O   UNL     1      -0.894   1.253   0.000  0.00  0.00    -0.472 OA
ATOM     20  C   UNL     1      -1.769   1.754   0.000  0.00  0.00    +0.252 C 
ENDBRANCH   5  19
TORSDOF 3
ENDMDL
MODEL      325
REMARK  Name = 3a,5a,7-trihydroxy-11a-methyl-1-(5-oxo-2,5-dihydrofuran-3-yl)-hexadecahydro-1H-cyclopenta[a]phenanthrene-9a-carboxylic acid
REMARK  2 active torsions:
REMARK  status: ('A' for Active; 'I' for Inactive)
REMARK    1  A    between atoms: C_1  and  C_9
REMARK    2  A    between atoms: C_7  and  C_8
REMARK                            x       y       z     vdW  Elec       q    Type
REMARK                         _______ _______ _______ _____ _____    ______ ____
ROOT
ATOM      1  C   UNL     1      -1.026  -1.428   0.000  0.00  0.00    +0.116 C 
ATOM      2  C   UNL     1      -1.884  -0.946   0.000  0.00  0.00    +0.015 C 
ATOM      3  C   UNL     1      -2.658  -1.428   0.000  0.00  0.00    +0.034 C 
ATOM      4  C   UNL     1      -2.658  -2.381   0.000  0.00  0.00    +0.154 C 
ATOM      5  C   UNL     1      -1.884  -2.864   0.000  0.00  0.00    +0.064 C 
ATOM      6  O   UNL     1      -3.579  -2.823   0.000  0.00  0.00    -0.223 OA
ATOM      7  C   UNL     1      -0.168  -0.946   0.000  0.00  0.00    +0.024 C 
ATOM      8  C   UNL     1      -0.168  -0.002   0.000  0.00  0.00    -0.003 C 
ATOM      9  C   UNL     1       0.583   0.481   0.000  0.00  0.00    +0.002 C 
ATOM     10  C   UNL     1       1.473  -0.002   0.000  0.00  0.00    +0.029 C 
ATOM     11  C   UNL     1       1.473  -0.946   0.000  0.00  0.00    +0.123 C 
ATOM     12  O   UNL     1       1.473  -2.148   0.000  0.00  0.00    -0.226 OA
ATOM     13  C   UNL     1       2.385  -1.245   0.000  0.00  0.00    +0.030 C 
ATOM     14  C   UNL     1       2.944  -0.472   0.000  0.00  0.00    +0.007 C 
ATOM     15  C   UNL     1       1.473   1.245   0.000  0.00  0.00    +0.003 C 
ATOM     16  C   UNL     1       2.385   0.266   0.000  0.00  0.00    +0.024 C 
ATOM     17  C   UNL     1       0.583  -1.428   0.000  0.00  0.00    +0.038 C 
ATOM     18  C   UNL     1       0.583  -2.381   0.000  0.00  0.00    +0.001 C 
ATOM     19  C   UNL     1      -0.168  -2.864   0.000  0.00  0.00    +0.031 C 
ATOM     20  C   UNL     1      -1.026  -2.381   0.000  0.00  0.00    +0.138 C 
ATOM     21  O   UNL     1      -1.026  -3.668   0.000  0.00  0.00    -0.225 OA
ENDROOT
BRANCH  16  22
ATOM     22  C   UNL     1       2.698   1.245   0.000  0.00  0.00    +0.005 C 
ATOM     23  C   UNL     1       3.579   1.522   0.000  0.00  0.00    +0.231 C 
ATOM     24  O   UNL     1       3.556   2.457   0.000  0.00  0.00    -0.441 OA
ATOM     25  C   UNL     1       2.635   2.756   0.000  0.00  0.00    +0.341 C 
ATOM     26  O   UNL     1       2.278   3.668   0.000  0.00  0.00    -0.245 OA
ATOM     27  C   UNL     1       2.099   1.920   0.000  0.00  0.00    +0.077 C 
ENDBRANCH  16  22
BRANCH   1  28
ATOM     28  C   UNL     1      -1.035   0.266   0.000  0.00  0.00    +0.366 C 
ATOM     29  O   UNL     1      -1.871   0.816   0.000  0.00  0.00    -0.246 OA
ATOM     30  O   UNL     1      -0.145   0.816   0.000  0.00  0.00    -0.246 OA
ENDBRANCH   1  28
TORSDOF 2
ENDMDL
MODEL      326
REMARK  Name = 4-[(9a-{[(3-carboxypropanoyl)oxy]methyl}-3a,5a-dihydroxy-11a-methyl-1-(5-oxo-2,5-dihydrofuran-3-yl)-hexadecahydro-1H-cyclopenta[a]phenanthren-7-yl)oxy]-4-oxobutanoic acid
REMARK  12 active torsions:
REMARK  status: ('A' for Active; 'I' for Inactive)
REMARK    1  A    between atoms: C_1  and  C_13
REMARK    2  A    between atoms: C_7  and  C_8
REMARK    3  A    between atoms: C_13  and  O_26
REMARK    4  A    between atoms: C_21  and  O_28
REMARK    5  A    between atoms: C_21  and  C_38
REMARK    6  A    between atoms: C_23  and  O_26
REMARK    7  A    between atoms: C_23  and  C_39
REMARK    8  A    between atoms: C_24  and  C_40
REMARK    9  A    between atoms: C_25  and  C_41
REMARK   10  A    between atoms: C_27  and  O_28
REMARK   11  A    between atoms: C_38  and  C_40
REMARK   12  A    between atoms: C_39  and  C_41
REMARK                            x       y       z     vdW  Elec       q    Type
REMARK                         _______ _______ _______ _____ _____    ______ ____
ROOT
ATOM      1  C   UNL     1      -0.247  -0.041   0.000  0.00  0.00    +0.063 C 
ATOM      2  C   UNL     1      -1.128   0.461   0.000  0.00  0.00    +0.009 C 
ATOM      3  C   UNL     1      -1.927  -0.041   0.000  0.00  0.00    +0.044 C 
ATOM      4  C   UNL     1      -1.927  -1.016   0.000  0.00  0.00    +0.171 C 
ATOM      5  C   UNL     1      -1.128  -1.490   0.000  0.00  0.00    +0.074 C 
ATOM      6  C   UNL     1       0.613   0.461   0.000  0.00  0.00    +0.017 C 
ATOM      7  C   UNL     1       0.613   1.436   0.000  0.00  0.00    -0.004 C 
ATOM      8  C   UNL     1       1.460   1.923   0.000  0.00  0.00    +0.002 C 
ATOM      9  C   UNL     1       2.320   1.436   0.000  0.00  0.00    +0.029 C 
ATOM     10  C   UNL     1       2.320   0.461   0.000  0.00  0.00    +0.123 C 
ATOM     11  O   UNL     1       2.320  -0.623   0.000  0.00  0.00    -0.226 OA
ATOM     12  C   UNL     1       3.194   0.169   0.000  0.00  0.00    +0.030 C 
ATOM     13  C   UNL     1       3.783   0.948   0.000  0.00  0.00    +0.007 C 
ATOM     14  C   UNL     1       2.320   2.432   0.000  0.00  0.00    +0.003 C 
ATOM     15  C   UNL     1       3.194   1.700   0.000  0.00  0.00    +0.024 C 
ATOM     16  C   UNL     1       1.460  -0.041   0.000  0.00  0.00    +0.038 C 
ATOM     17  C   UNL     1       1.460  -1.016   0.000  0.00  0.00    +0.001 C 
ATOM     18  C   UNL     1       0.613  -1.490   0.000  0.00  0.00    +0.030 C 
ATOM     19  C   UNL     1      -0.247  -1.016   0.000  0.00  0.00    +0.133 C 
ATOM     20  O   UNL     1      -0.247  -2.269   0.000  0.00  0.00    -0.225 OA
ENDROOT
BRANCH  15  21
ATOM     21  C   UNL     1       3.573   2.709   0.000  0.00  0.00    +0.005 C 
ATOM     22  C   UNL     1       4.575   3.048   0.000  0.00  0.00    +0.231 C 
ATOM     23  O   UNL     1       4.575   4.091   0.000  0.00  0.00    -0.441 OA
ATOM     24  C   UNL     1       3.573   4.464   0.000  0.00  0.00    +0.341 C 
ATOM     25  O   UNL     1       3.194   5.486   0.000  0.00  0.00    -0.245 OA
ATOM     26  C   UNL     1       2.923   3.536   0.000  0.00  0.00    +0.077 C 
ENDBRANCH  15  21
BRANCH   4  27
ATOM     27  O   UNL     1      -2.801  -1.538   0.000  0.00  0.00    -0.452 OA
BRANCH  27  28
ATOM     28  C   UNL     1      -2.801  -2.513   0.000  0.00  0.00    +0.317 C 
ATOM     29  O   UNL     1      -3.647  -3.001   0.000  0.00  0.00    -0.250 OA
BRANCH  28  30
ATOM     30  C   UNL     1      -1.941  -3.014   0.000  0.00  0.00    +0.121 C 
BRANCH  30  31
ATOM     31  C   UNL     1      -1.941  -4.010   0.000  0.00  0.00    +0.126 C 
BRANCH  31  32
ATOM     32  C   UNL     1      -1.094  -4.497   0.000  0.00  0.00    +0.365 C 
ATOM     33  O   UNL     1      -0.234  -4.010   0.000  0.00  0.00    -0.246 OA
ATOM     34  O   UNL     1      -1.094  -5.486   0.000  0.00  0.00    -0.246 OA
ENDBRANCH  31  32
ENDBRANCH  30  31
ENDBRANCH  28  30
ENDBRANCH  27  28
ENDBRANCH   4  27
BRANCH   1  35
ATOM     35  C   UNL     1      -0.247   0.948   0.000  0.00  0.00    +0.210 C 
BRANCH  35  36
ATOM     36  O   UNL     1      -1.114   1.470   0.000  0.00  0.00    -0.448 OA
BRANCH  36  37
ATOM     37  C   UNL     1      -1.094   2.465   0.000  0.00  0.00    +0.318 C 
ATOM     38  O   UNL     1      -0.220   2.967   0.000  0.00  0.00    -0.250 OA
BRANCH  37  39
ATOM     39  C   UNL     1      -1.941   2.967   0.000  0.00  0.00    +0.121 C 
BRANCH  39  40
ATOM     40  C   UNL     1      -2.848   2.493   0.000  0.00  0.00    +0.126 C 
BRANCH  40  41
ATOM     41  C   UNL     1      -3.715   2.980   0.000  0.00  0.00    +0.365 C 
ATOM     42  O   UNL     1      -4.575   2.493   0.000  0.00  0.00    -0.246 OA
ATOM     43  O   UNL     1      -3.715   3.989   0.000  0.00  0.00    -0.246 OA
ENDBRANCH  40  41
ENDBRANCH  39  40
ENDBRANCH  37  39
ENDBRANCH  36  37
ENDBRANCH  35  36
ENDBRANCH   1  35
TORSDOF 12
ENDMDL
MODEL      327
REMARK  Name = 4-[3a,5a,10-trihydroxy-9a-(hydroxymethyl)-11a-methyl-7-[(3,4,5-trihydroxy-6-methyloxan-2-yl)oxy]-hexadecahydro-1H-cyclopenta[a]phenanthren-1-yl]-2,5-dihydrofuran-2-one
REMARK  4 active torsions:
REMARK  status: ('A' for Active; 'I' for Inactive)
REMARK    1  A    between atoms: C_3  and  C_34
REMARK    2  A    between atoms: C_5  and  O_23
REMARK    3  A    between atoms: C_10  and  C_12
REMARK    4  A    between atoms: O_23  and  C_28
REMARK                            x       y       z     vdW  Elec       q    Type
REMARK                         _______ _______ _______ _____ _____    ______ ____
ROOT
ATOM      1  C   UNL     1       2.799   1.138   0.000  0.00  0.00    +0.032 C 
ATOM      2  C   UNL     1       2.811   2.012   0.000  0.00  0.00    +0.003 C 
ATOM      3  C   UNL     1       1.955   1.625   0.000  0.00  0.00    +0.035 C 
ATOM      4  C   UNL     1       1.200   1.138   0.000  0.00  0.00    +0.148 C 
ATOM      5  O   UNL     1       0.285   1.625   0.000  0.00  0.00    -0.223 OA
ATOM      6  C   UNL     1       1.200   0.241   0.000  0.00  0.00    +0.047 C 
ATOM      7  C   UNL     1       1.955  -0.229   0.000  0.00  0.00    +0.040 C 
ATOM      8  C   UNL     1       1.955  -1.144   0.000  0.00  0.00    +0.001 C 
ATOM      9  C   UNL     1       1.200  -1.572   0.000  0.00  0.00    +0.030 C 
ATOM     10  C   UNL     1       0.386  -1.144   0.000  0.00  0.00    +0.131 C 
ATOM     11  O   UNL     1       0.386  -2.368   0.000  0.00  0.00    -0.226 OA
ATOM     12  C   UNL     1      -0.428  -1.572   0.000  0.00  0.00    +0.060 C 
ATOM     13  C   UNL     1      -1.194  -1.144   0.000  0.00  0.00    +0.120 C 
ATOM     14  C   UNL     1      -1.194  -0.229   0.000  0.00  0.00    +0.030 C 
ATOM     15  C   UNL     1      -0.428   0.241   0.000  0.00  0.00    +0.007 C 
ATOM     16  C   UNL     1       0.386  -0.229   0.000  0.00  0.00    +0.055 C 
ATOM     17  C   UNL     1       3.637   1.411   0.000  0.00  0.00    +0.024 C 
ATOM     18  C   UNL     1       4.136   0.686   0.000  0.00  0.00    +0.007 C 
ATOM     19  C   UNL     1       3.637  -0.045   0.000  0.00  0.00    +0.030 C 
ATOM     20  C   UNL     1       2.799   0.241   0.000  0.00  0.00    +0.123 C 
ATOM     21  O   UNL     1       2.811  -0.728   0.000  0.00  0.00    -0.226 OA
ENDROOT
BRANCH  17  22
ATOM     22  C   UNL     1       4.011   2.255   0.000  0.00  0.00    +0.005 C 
ATOM     23  C   UNL     1       4.909   2.422   0.000  0.00  0.00    +0.231 C 
ATOM     24  O   UNL     1       5.034   3.337   0.000  0.00  0.00    -0.441 OA
ATOM     25  C   UNL     1       4.267   3.753   0.000  0.00  0.00    +0.341 C 
ATOM     26  O   UNL     1       3.922   4.876   0.000  0.00  0.00    -0.245 OA
ATOM     27  C   UNL     1       3.625   3.111   0.000  0.00  0.00    +0.077 C 
ENDBRANCH  17  22
BRANCH  16  28
ATOM     28  C   UNL     1       0.386   0.686   0.000  0.00  0.00    +0.184 C 
ATOM     29  O   UNL     1      -0.428   1.138   0.000  0.00  0.00    -0.220 OA
ENDBRANCH  16  28
BRANCH  13  30
ATOM     30  O   UNL     1      -1.979  -1.625   0.000  0.00  0.00    -0.331 OA
BRANCH  30  31
ATOM     31  C   UNL     1      -1.979  -2.879   0.000  0.00  0.00    +0.269 C 
ATOM     32  O   UNL     1      -2.793  -1.839   0.000  0.00  0.00    -0.328 OA
ATOM     33  C   UNL     1      -4.291  -1.839   0.000  0.00  0.00    +0.151 C 
ATOM     34  C   UNL     1      -4.249  -2.683   0.000  0.00  0.00    +0.035 C 
ATOM     35  C   UNL     1      -5.034  -2.879   0.000  0.00  0.00    +0.212 C 
ATOM     36  C   UNL     1      -4.291  -3.866   0.000  0.00  0.00    +0.220 C 
ATOM     37  O   UNL     1      -4.308  -4.852   0.000  0.00  0.00    -0.217 OA
ATOM     38  O   UNL     1      -5.034  -1.839   0.000  0.00  0.00    -0.218 OA
ATOM     39  C   UNL     1      -2.793  -3.866   0.000  0.00  0.00    +0.241 C 
ATOM     40  O   UNL     1      -2.793  -4.876   0.000  0.00  0.00    -0.215 OA
ENDBRANCH  30  31
ENDBRANCH  13  30
TORSDOF 4
ENDMDL
MODEL      328
REMARK  Name = 4-{3a,5a-dihydroxy-7-[(5-hydroxy-4-methoxy-6-methyloxan-2-yl)oxy]-9a-(hydroxymethyl)-11a-methyl-hexadecahydro-1H-cyclopenta[a]phenanthren-1-yl}-2,5-dihydrofuran-2-one
REMARK  5 active torsions:
REMARK  status: ('A' for Active; 'I' for Inactive)
REMARK    1  A    between atoms: C_2  and  C_32
REMARK    2  A    between atoms: C_7  and  C_8
REMARK    3  A    between atoms: C_9  and  O_27
REMARK    4  A    between atoms: C_15  and  O_36
REMARK    5  A    between atoms: O_27  and  C_28
REMARK                            x       y       z     vdW  Elec       q    Type
REMARK                         _______ _______ _______ _____ _____    ______ ____
ROOT
ATOM      1  C   UNL     1       2.789   0.515   0.000  0.00  0.00    +0.123 C 
ATOM      2  O   UNL     1       2.770  -0.425   0.000  0.00  0.00    -0.226 OA
ATOM      3  C   UNL     1       3.634   0.221   0.000  0.00  0.00    +0.030 C 
ATOM      4  C   UNL     1       4.120   0.957   0.000  0.00  0.00    +0.007 C 
ATOM      5  C   UNL     1       3.634   1.679   0.000  0.00  0.00    +0.024 C 
ATOM      6  C   UNL     1       1.958   0.035   0.000  0.00  0.00    +0.038 C 
ATOM      7  C   UNL     1       1.958  -0.854   0.000  0.00  0.00    +0.001 C 
ATOM      8  C   UNL     1       1.203  -1.283   0.000  0.00  0.00    +0.030 C 
ATOM      9  C   UNL     1       0.390  -0.854   0.000  0.00  0.00    +0.131 C 
ATOM     10  C   UNL     1       0.390   0.035   0.000  0.00  0.00    +0.053 C 
ATOM     11  C   UNL     1      -0.435   0.515   0.000  0.00  0.00    +0.007 C 
ATOM     12  C   UNL     1      -1.203   0.035   0.000  0.00  0.00    +0.030 C 
ATOM     13  C   UNL     1      -1.203  -0.854   0.000  0.00  0.00    +0.120 C 
ATOM     14  O   UNL     1       0.390  -2.083   0.000  0.00  0.00    -0.226 OA
ATOM     15  C   UNL     1      -0.435  -1.283   0.000  0.00  0.00    +0.060 C 
ATOM     16  C   UNL     1       1.203   0.515   0.000  0.00  0.00    +0.016 C 
ATOM     17  C   UNL     1       1.203   1.404   0.000  0.00  0.00    -0.004 C 
ATOM     18  C   UNL     1       1.958   1.897   0.000  0.00  0.00    +0.002 C 
ATOM     19  C   UNL     1       2.789   1.404   0.000  0.00  0.00    +0.029 C 
ATOM     20  C   UNL     1       2.770   2.434   0.000  0.00  0.00    +0.003 C 
ENDROOT
BRANCH   5  21
ATOM     21  C   UNL     1       3.999   2.524   0.000  0.00  0.00    +0.005 C 
ATOM     22  C   UNL     1       4.888   2.697   0.000  0.00  0.00    +0.231 C 
ATOM     23  O   UNL     1       5.029   3.599   0.000  0.00  0.00    -0.441 OA
ATOM     24  C   UNL     1       4.261   4.015   0.000  0.00  0.00    +0.341 C 
ATOM     25  O   UNL     1       3.909   5.134   0.000  0.00  0.00    -0.245 OA
ATOM     26  C   UNL     1       3.615   3.388   0.000  0.00  0.00    +0.077 C 
ENDBRANCH   5  21
BRANCH  10  27
ATOM     27  C   UNL     1       0.390   0.957   0.000  0.00  0.00    +0.184 C 
ATOM     28  O   UNL     1      -0.435   1.404   0.000  0.00  0.00    -0.220 OA
ENDBRANCH  10  27
BRANCH  13  29
ATOM     29  O   UNL     1      -1.990  -1.347   0.000  0.00  0.00    -0.333 OA
BRANCH  29  30
ATOM     30  C   UNL     1      -1.990  -2.601   0.000  0.00  0.00    +0.238 C 
ATOM     31  C   UNL     1      -2.789  -3.586   0.000  0.00  0.00    +0.094 C 
ATOM     32  C   UNL     1      -4.274  -3.586   0.000  0.00  0.00    +0.153 C 
ATOM     33  C   UNL     1      -5.029  -2.601   0.000  0.00  0.00    +0.206 C 
ATOM     34  C   UNL     1      -4.274  -1.558   0.000  0.00  0.00    +0.150 C 
ATOM     35  C   UNL     1      -4.274  -0.681   0.000  0.00  0.00    +0.035 C 
ATOM     36  O   UNL     1      -5.016  -3.650   0.000  0.00  0.00    -0.218 OA
ATOM     37  O   UNL     1      -2.789  -1.558   0.000  0.00  0.00    -0.330 OA
BRANCH  32  38
ATOM     38  O   UNL     1      -4.274  -4.462   0.000  0.00  0.00    -0.351 OA
ATOM     39  C   UNL     1      -3.429  -5.134   0.000  0.00  0.00    +0.174 C 
ENDBRANCH  32  38
ENDBRANCH  29  30
ENDBRANCH  13  29
TORSDOF 5
ENDMDL
MODEL      329
REMARK  Name = 4-{7-[(4,5-dihydroxy-6-methyloxan-2-yl)oxy]-3a,5a-dihydroxy-9a-(hydroxymethyl)-11a-methyl-hexadecahydro-1H-cyclopenta[a]phenanthren-1-yl}-2,5-dihydrofuran-2-one
REMARK  4 active torsions:
REMARK  status: ('A' for Active; 'I' for Inactive)
REMARK    1  A    between atoms: C_2  and  C_32
REMARK    2  A    between atoms: C_7  and  C_8
REMARK    3  A    between atoms: C_9  and  O_27
REMARK    4  A    between atoms: O_27  and  C_28
REMARK                            x       y       z     vdW  Elec       q    Type
REMARK                         _______ _______ _______ _____ _____    ______ ____
ROOT
ATOM      1  C   UNL     1       2.645  -0.024   0.000  0.00  0.00    +0.123 C 
ATOM      2  O   UNL     1       2.633  -1.128   0.000  0.00  0.00    -0.226 OA
ATOM      3  C   UNL     1       3.493  -0.310   0.000  0.00  0.00    +0.030 C 
ATOM      4  C   UNL     1       3.977   0.406   0.000  0.00  0.00    +0.007 C 
ATOM      5  C   UNL     1       3.493   1.105   0.000  0.00  0.00    +0.024 C 
ATOM      6  C   UNL     1       1.887  -0.513   0.000  0.00  0.00    +0.038 C 
ATOM      7  C   UNL     1       1.887  -1.373   0.000  0.00  0.00    +0.001 C 
ATOM      8  C   UNL     1       1.129  -1.815   0.000  0.00  0.00    +0.030 C 
ATOM      9  C   UNL     1       0.340  -1.373   0.000  0.00  0.00    +0.131 C 
ATOM     10  C   UNL     1       0.340  -0.513   0.000  0.00  0.00    +0.053 C 
ATOM     11  C   UNL     1      -0.466  -0.024   0.000  0.00  0.00    +0.007 C 
ATOM     12  C   UNL     1      -1.182  -0.513   0.000  0.00  0.00    +0.030 C 
ATOM     13  C   UNL     1      -1.182  -1.373   0.000  0.00  0.00    +0.120 C 
ATOM     14  O   UNL     1       0.340  -2.550   0.000  0.00  0.00    -0.226 OA
ATOM     15  C   UNL     1      -0.466  -1.815   0.000  0.00  0.00    +0.060 C 
ATOM     16  C   UNL     1       1.129  -0.024   0.000  0.00  0.00    +0.016 C 
ATOM     17  C   UNL     1       1.129   0.848   0.000  0.00  0.00    -0.004 C 
ATOM     18  C   UNL     1       1.887   1.290   0.000  0.00  0.00    +0.002 C 
ATOM     19  C   UNL     1       2.645   0.848   0.000  0.00  0.00    +0.029 C 
ATOM     20  C   UNL     1       2.633   1.881   0.000  0.00  0.00    +0.003 C 
ENDROOT
BRANCH   5  21
ATOM     21  C   UNL     1       3.863   2.096   0.000  0.00  0.00    +0.005 C 
ATOM     22  C   UNL     1       4.896   2.394   0.000  0.00  0.00    +0.231 C 
ATOM     23  O   UNL     1       4.908   3.439   0.000  0.00  0.00    -0.441 OA
ATOM     24  C   UNL     1       3.893   3.815   0.000  0.00  0.00    +0.341 C 
ATOM     25  O   UNL     1       3.594   4.872   0.000  0.00  0.00    -0.245 OA
ATOM     26  C   UNL     1       3.248   2.926   0.000  0.00  0.00    +0.077 C 
ENDBRANCH   5  21
BRANCH  10  27
ATOM     27  C   UNL     1       0.323   0.573   0.000  0.00  0.00    +0.184 C 
ATOM     28  O   UNL     1      -0.609   1.093   0.000  0.00  0.00    -0.220 OA
ENDBRANCH  10  27
BRANCH  13  29
ATOM     29  O   UNL     1      -1.952  -1.845   0.000  0.00  0.00    -0.333 OA
BRANCH  29  30
ATOM     30  C   UNL     1      -1.952  -3.063   0.000  0.00  0.00    +0.238 C 
ATOM     31  C   UNL     1      -2.711  -4.012   0.000  0.00  0.00    +0.097 C 
ATOM     32  C   UNL     1      -4.144  -4.012   0.000  0.00  0.00    +0.190 C 
ATOM     33  O   UNL     1      -4.144  -4.872   0.000  0.00  0.00    -0.220 OA
ATOM     34  C   UNL     1      -4.908  -3.063   0.000  0.00  0.00    +0.209 C 
ATOM     35  C   UNL     1      -4.144  -2.078   0.000  0.00  0.00    +0.151 C 
ATOM     36  C   UNL     1      -4.144  -1.230   0.000  0.00  0.00    +0.035 C 
ATOM     37  O   UNL     1      -4.908  -4.168   0.000  0.00  0.00    -0.218 OA
ATOM     38  O   UNL     1      -2.711  -2.078   0.000  0.00  0.00    -0.330 OA
ENDBRANCH  29  30
ENDBRANCH  13  29
TORSDOF 4
ENDMDL
MODEL      330
REMARK  Name = 6-({6-[(6-{[3a,11-dihydroxy-9a,11a-dimethyl-1-(5-oxo-2,5-dihydrofuran-3-yl)-hexadecahydro-1H-cyclopenta[a]phenanthren-7-yl]oxy}-4-hydroxy-2-methyloxan-3-yl)oxy]-4-hydroxy-2-methyloxan-3-yl}oxy)-2-meth yl-3-{[3,4,5-trihydroxy-6-(hydroxymethyl)oxan-2-yl]oxy}oxan-4-yl acetate
REMARK  12 active torsions:
REMARK  status: ('A' for Active; 'I' for Inactive)
REMARK    1  A    between atoms: C_3  and  O_14
REMARK    2  A    between atoms: C_10  and  O_14
REMARK    3  A    between atoms: C_11  and  C_13
REMARK    4  A    between atoms: C_15  and  O_41
REMARK    5  A    between atoms: C_17  and  O_40
REMARK    6  A    between atoms: C_18  and  O_39
REMARK    7  A    between atoms: C_19  and  C_64
REMARK    8  A    between atoms: C_20  and  O_40
REMARK    9  A    between atoms: C_21  and  O_39
REMARK   10  A    between atoms: C_23  and  O_48
REMARK   11  A    between atoms: O_41  and  C_46
REMARK   12  A    between atoms: O_48  and  C_53
REMARK                            x       y       z     vdW  Elec       q    Type
REMARK                         _______ _______ _______ _____ _____    ______ ____
ROOT
ATOM      1  C   UNL     1       2.546   1.413   0.000  0.00  0.00    +0.238 C 
ATOM      2  C   UNL     1       2.003   0.728   0.000  0.00  0.00    +0.097 C 
ATOM      3  C   UNL     1       0.928   0.728   0.000  0.00  0.00    +0.186 C 
ATOM      4  O   UNL     1       0.994  -0.366   0.000  0.00  0.00    -0.220 OA
ATOM      5  C   UNL     1       0.404   1.413   0.000  0.00  0.00    +0.175 C 
ATOM      6  C   UNL     1       0.928   2.146   0.000  0.00  0.00    +0.147 C 
ATOM      7  C   UNL     1       0.899   3.288   0.000  0.00  0.00    +0.035 C 
ATOM      8  O   UNL     1       2.003   2.146   0.000  0.00  0.00    -0.330 OA
ENDROOT
BRANCH   1   9
ATOM      9  O   UNL     1       2.546   2.308   0.000  0.00  0.00    -0.333 OA
BRANCH   9  23
ATOM     10  C   UNL     1       5.904   3.611   0.000  0.00  0.00    +0.125 C 
ATOM     11  O   UNL     1       5.904   1.623   0.000  0.00  0.00    -0.226 OA
ATOM     12  C   UNL     1       6.495   3.421   0.000  0.00  0.00    +0.031 C 
ATOM     13  C   UNL     1       6.885   3.954   0.000  0.00  0.00    +0.007 C 
ATOM     14  C   UNL     1       6.495   4.458   0.000  0.00  0.00    +0.027 C 
ATOM     15  C   UNL     1       5.353   3.307   0.000  0.00  0.00    +0.038 C 
ATOM     16  C   UNL     1       5.353   2.650   0.000  0.00  0.00    -0.002 C 
ATOM     17  C   UNL     1       4.782   2.355   0.000  0.00  0.00    -0.004 C 
ATOM     18  C   UNL     1       4.239   2.650   0.000  0.00  0.00    +0.015 C 
ATOM     19  C   UNL     1       4.239   3.307   0.000  0.00  0.00    -0.007 C 
ATOM     20  C   UNL     1       4.173   4.544   0.000  0.00  0.00    -0.001 C 
ATOM     21  C   UNL     1       3.640   3.611   0.000  0.00  0.00    +0.002 C 
ATOM     22  C   UNL     1       3.116   3.307   0.000  0.00  0.00    +0.030 C 
ATOM     23  C   UNL     1       3.116   2.650   0.000  0.00  0.00    +0.117 C 
ATOM     24  C   UNL     1       3.640   2.355   0.000  0.00  0.00    +0.026 C 
ATOM     25  C   UNL     1       4.782   3.611   0.000  0.00  0.00    +0.014 C 
ATOM     26  C   UNL     1       4.782   4.296   0.000  0.00  0.00    +0.029 C 
ATOM     27  C   UNL     1       5.353   4.592   0.000  0.00  0.00    +0.154 C 
ATOM     28  O   UNL     1       5.286   5.753   0.000  0.00  0.00    -0.223 OA
ATOM     29  C   UNL     1       5.904   4.296   0.000  0.00  0.00    +0.057 C 
ATOM     30  C   UNL     1       5.857   7.123   0.000  0.00  0.00    +0.005 C 
BRANCH  14  31
ATOM     31  C   UNL     1       6.771   5.362   0.000  0.00  0.00    +0.005 C 
ATOM     32  C   UNL     1       7.665   5.686   0.000  0.00  0.00    +0.231 C 
ATOM     33  O   UNL     1       7.665   6.618   0.000  0.00  0.00    -0.441 OA
ATOM     34  C   UNL     1       6.752   6.923   0.000  0.00  0.00    +0.341 C 
ATOM     35  O   UNL     1       6.428   7.856   0.000  0.00  0.00    -0.245 OA
ATOM     36  C   UNL     1       6.181   6.076   0.000  0.00  0.00    +0.077 C 
ENDBRANCH  14  31
ENDBRANCH   9  23
ENDBRANCH   1   9
BRANCH   5  37
ATOM     37  O   UNL     1       0.404   0.452   0.000  0.00  0.00    -0.328 OA
BRANCH  37  38
ATOM     38  C   UNL     1       0.404  -0.414   0.000  0.00  0.00    +0.238 C 
ATOM     39  C   UNL     1      -0.214  -1.147   0.000  0.00  0.00    +0.097 C 
ATOM     40  C   UNL     1      -1.356  -1.147   0.000  0.00  0.00    +0.186 C 
ATOM     41  O   UNL     1      -1.356  -1.946   0.000  0.00  0.00    -0.220 OA
ATOM     42  C   UNL     1      -1.927  -0.414   0.000  0.00  0.00    +0.175 C 
ATOM     43  C   UNL     1      -1.356   0.385   0.000  0.00  0.00    +0.147 C 
ATOM     44  C   UNL     1      -1.356   1.461   0.000  0.00  0.00    +0.035 C 
ATOM     45  O   UNL     1      -0.214   0.385   0.000  0.00  0.00    -0.330 OA
BRANCH  42  46
ATOM     46  O   UNL     1      -1.927  -1.756   0.000  0.00  0.00    -0.328 OA
BRANCH  46  47
ATOM     47  C   UNL     1      -1.927  -3.240   0.000  0.00  0.00    +0.239 C 
ATOM     48  C   UNL     1      -2.498  -4.069   0.000  0.00  0.00    +0.108 C 
ATOM     49  C   UNL     1      -3.783  -4.069   0.000  0.00  0.00    +0.203 C 
ATOM     50  C   UNL     1      -4.373  -3.240   0.000  0.00  0.00    +0.185 C 
ATOM     51  C   UNL     1      -3.783  -2.403   0.000  0.00  0.00    +0.149 C 
ATOM     52  C   UNL     1      -3.849  -1.118   0.000  0.00  0.00    +0.035 C 
ATOM     53  O   UNL     1      -2.498  -2.403   0.000  0.00  0.00    -0.330 OA
BRANCH  49  54
ATOM     54  O   UNL     1      -3.783  -5.258   0.000  0.00  0.00    -0.449 OA
BRANCH  54  55
ATOM     55  C   UNL     1      -2.936  -5.733   0.000  0.00  0.00    +0.318 C 
ATOM     56  C   UNL     1      -2.108  -5.258   0.000  0.00  0.00    +0.121 C 
ATOM     57  O   UNL     1      -2.936  -6.714   0.000  0.00  0.00    -0.250 OA
ENDBRANCH  54  55
ENDBRANCH  49  54
BRANCH  50  58
ATOM     58  O   UNL     1      -4.373  -4.658   0.000  0.00  0.00    -0.325 OA
BRANCH  58  59
ATOM     59  C   UNL     1      -4.373  -6.095   0.000  0.00  0.00    +0.270 C 
ATOM     60  O   UNL     1      -5.077  -5.162   0.000  0.00  0.00    -0.326 OA
ATOM     61  C   UNL     1      -6.476  -5.162   0.000  0.00  0.00    +0.183 C 
ATOM     62  C   UNL     1      -7.132  -6.095   0.000  0.00  0.00    +0.214 C 
ATOM     63  C   UNL     1      -6.476  -7.037   0.000  0.00  0.00    +0.220 C 
ATOM     64  O   UNL     1      -6.409  -5.981   0.000  0.00  0.00    -0.217 OA
ATOM     65  O   UNL     1      -7.114  -7.580   0.000  0.00  0.00    -0.218 OA
ATOM     66  C   UNL     1      -5.077  -7.037   0.000  0.00  0.00    +0.241 C 
ATOM     67  O   UNL     1      -5.077  -7.856   0.000  0.00  0.00    -0.215 OA
BRANCH  61  68
ATOM     68  C   UNL     1      -6.495  -3.973   0.000  0.00  0.00    +0.214 C 
ATOM     69  O   UNL     1      -7.665  -3.221   0.000  0.00  0.00    -0.218 OA
ENDBRANCH  61  68
ENDBRANCH  58  59
ENDBRANCH  50  58
ENDBRANCH  46  47
ENDBRANCH  42  46
ENDBRANCH  37  38
ENDBRANCH   5  37
TORSDOF 12
ENDMDL
MODEL      331
REMARK  Name = 4-{3a,5a-dihydroxy-7-[(4-methoxy-6-methyl-5-{[3,4,5-trihydroxy-6-(hydroxymethyl)oxan-2-yl]oxy}oxan-2-yl)oxy]-9a,11a-dimethyl-hexadecahydro-1H-cyclopenta[a]phenanthren-1-yl}-2,5-dihydrofuran-2-one
REMARK  7 active torsions:
REMARK  status: ('A' for Active; 'I' for Inactive)
REMARK    1  A    between atoms: C_3  and  O_13
REMARK    2  A    between atoms: C_11  and  C_14
REMARK    3  A    between atoms: C_12  and  O_13
REMARK    4  A    between atoms: C_16  and  C_46
REMARK    5  A    between atoms: C_17  and  O_34
REMARK    6  A    between atoms: C_21  and  O_44
REMARK    7  A    between atoms: O_34  and  C_35
REMARK                            x       y       z     vdW  Elec       q    Type
REMARK                         _______ _______ _______ _____ _____    ______ ____
ROOT
ATOM      1  C   UNL     1       4.091   1.471   0.000  0.00  0.00    +0.123 C 
ATOM      2  O   UNL     1       4.126   0.327   0.000  0.00  0.00    -0.226 OA
ATOM      3  C   UNL     1       4.875   1.191   0.000  0.00  0.00    +0.030 C 
ATOM      4  C   UNL     1       5.351   1.879   0.000  0.00  0.00    +0.007 C 
ATOM      5  C   UNL     1       4.875   2.533   0.000  0.00  0.00    +0.024 C 
ATOM      6  C   UNL     1       3.356   1.028   0.000  0.00  0.00    +0.038 C 
ATOM      7  C   UNL     1       3.356   0.197   0.000  0.00  0.00    +0.001 C 
ATOM      8  C   UNL     1       2.655  -0.211   0.000  0.00  0.00    +0.030 C 
ATOM      9  C   UNL     1       1.899   0.197   0.000  0.00  0.00    +0.129 C 
ATOM     10  C   UNL     1       1.899   1.028   0.000  0.00  0.00    +0.022 C 
ATOM     11  C   UNL     1       1.886   2.676   0.000  0.00  0.00    +0.002 C 
ATOM     12  C   UNL     1       1.137   1.471   0.000  0.00  0.00    +0.005 C 
ATOM     13  C   UNL     1       0.463   1.028   0.000  0.00  0.00    +0.030 C 
ATOM     14  C   UNL     1       0.463   0.197   0.000  0.00  0.00    +0.120 C 
ATOM     15  O   UNL     1       1.899  -0.919   0.000  0.00  0.00    -0.226 OA
ATOM     16  C   UNL     1       1.137  -0.211   0.000  0.00  0.00    +0.060 C 
ATOM     17  C   UNL     1       2.655   1.471   0.000  0.00  0.00    +0.014 C 
ATOM     18  C   UNL     1       2.655   2.288   0.000  0.00  0.00    -0.004 C 
ATOM     19  C   UNL     1       3.356   2.710   0.000  0.00  0.00    +0.002 C 
ATOM     20  C   UNL     1       4.091   2.288   0.000  0.00  0.00    +0.029 C 
ATOM     21  C   UNL     1       4.091   3.479   0.000  0.00  0.00    +0.003 C 
ENDROOT
BRANCH   5  22
ATOM     22  C   UNL     1       5.235   3.316   0.000  0.00  0.00    +0.005 C 
ATOM     23  C   UNL     1       6.052   3.465   0.000  0.00  0.00    +0.231 C 
ATOM     24  O   UNL     1       6.168   4.296   0.000  0.00  0.00    -0.441 OA
ATOM     25  C   UNL     1       5.467   4.657   0.000  0.00  0.00    +0.341 C 
ATOM     26  O   UNL     1       5.140   5.603   0.000  0.00  0.00    -0.245 OA
ATOM     27  C   UNL     1       4.841   4.072   0.000  0.00  0.00    +0.077 C 
ENDBRANCH   5  22
BRANCH  14  28
ATOM     28  O   UNL     1      -0.286  -0.245   0.000  0.00  0.00    -0.333 OA
BRANCH  28  29
ATOM     29  C   UNL     1      -0.286  -1.389   0.000  0.00  0.00    +0.238 C 
ATOM     30  C   UNL     1      -1.008  -2.288   0.000  0.00  0.00    +0.093 C 
ATOM     31  C   UNL     1      -2.363  -2.288   0.000  0.00  0.00    +0.150 C 
ATOM     32  C   UNL     1      -3.064  -1.389   0.000  0.00  0.00    +0.172 C 
ATOM     33  C   UNL     1      -2.363  -0.456   0.000  0.00  0.00    +0.147 C 
ATOM     34  C   UNL     1      -2.376   0.504   0.000  0.00  0.00    +0.035 C 
ATOM     35  O   UNL     1      -1.008  -0.456   0.000  0.00  0.00    -0.330 OA
BRANCH  31  36
ATOM     36  O   UNL     1      -2.363  -3.125   0.000  0.00  0.00    -0.351 OA
ATOM     37  C   UNL     1      -1.511  -3.642   0.000  0.00  0.00    +0.174 C 
ENDBRANCH  31  36
BRANCH  32  38
ATOM     38  O   UNL     1      -3.064  -2.648   0.000  0.00  0.00    -0.326 OA
BRANCH  38  39
ATOM     39  C   UNL     1      -3.064  -3.758   0.000  0.00  0.00    +0.270 C 
ATOM     40  O   UNL     1      -3.847  -2.744   0.000  0.00  0.00    -0.326 OA
ATOM     41  C   UNL     1      -5.351  -2.744   0.000  0.00  0.00    +0.183 C 
ATOM     42  C   UNL     1      -6.073  -3.758   0.000  0.00  0.00    +0.214 C 
ATOM     43  C   UNL     1      -5.351  -4.738   0.000  0.00  0.00    +0.220 C 
ATOM     44  O   UNL     1      -5.351  -3.779   0.000  0.00  0.00    -0.217 OA
ATOM     45  O   UNL     1      -6.073  -5.004   0.000  0.00  0.00    -0.218 OA
ATOM     46  C   UNL     1      -3.847  -4.738   0.000  0.00  0.00    +0.241 C 
ATOM     47  O   UNL     1      -3.847  -5.603   0.000  0.00  0.00    -0.215 OA
BRANCH  41  48
ATOM     48  C   UNL     1      -5.351  -1.750   0.000  0.00  0.00    +0.214 C 
ATOM     49  O   UNL     1      -6.168  -1.083   0.000  0.00  0.00    -0.218 OA
ENDBRANCH  41  48
ENDBRANCH  38  39
ENDBRANCH  32  38
ENDBRANCH  28  29
ENDBRANCH  14  28
TORSDOF 7
ENDMDL
MODEL      332
REMARK  Name = 3a-hydroxy-7-[(5-hydroxy-4-methoxy-6-methyloxan-2-yl)oxy]-9a,11a-dimethyl-1-(5-oxo-2,5-dihydrofuran-3-yl)-hexadecahydro-1H-cyclopenta[a]phenanthren-2-yl acetate
REMARK  6 active torsions:
REMARK  status: ('A' for Active; 'I' for Inactive)
REMARK    1  A    between atoms: C_4  and  C_6
REMARK    2  A    between atoms: C_9  and  O_21
REMARK    3  A    between atoms: C_10  and  O_27
REMARK    4  A    between atoms: C_18  and  O_37
REMARK    5  A    between atoms: O_21  and  C_26
REMARK    6  A    between atoms: O_27  and  C_32
REMARK                            x       y       z     vdW  Elec       q    Type
REMARK                         _______ _______ _______ _____ _____    ______ ____
ROOT
ATOM      1  C   UNL     1       1.889   0.528   0.000  0.00  0.00    +0.127 C 
ATOM      2  O   UNL     1       1.870  -0.762   0.000  0.00  0.00    -0.226 OA
ATOM      3  C   UNL     1       2.734   0.232   0.000  0.00  0.00    +0.074 C 
ATOM      4  C   UNL     1       3.234   0.972   0.000  0.00  0.00    +0.175 C 
ATOM      5  C   UNL     1       2.734   1.663   0.000  0.00  0.00    +0.064 C 
ATOM      6  C   UNL     1       1.105   0.052   0.000  0.00  0.00    +0.038 C 
ATOM      7  C   UNL     1       1.105  -0.836   0.000  0.00  0.00    -0.002 C 
ATOM      8  C   UNL     1       0.346  -1.281   0.000  0.00  0.00    -0.004 C 
ATOM      9  C   UNL     1      -0.469  -0.836   0.000  0.00  0.00    +0.015 C 
ATOM     10  C   UNL     1      -0.469   0.052   0.000  0.00  0.00    -0.007 C 
ATOM     11  C   UNL     1      -0.469   1.367   0.000  0.00  0.00    -0.001 C 
ATOM     12  C   UNL     1      -1.284   0.528   0.000  0.00  0.00    +0.002 C 
ATOM     13  C   UNL     1      -2.006   0.052   0.000  0.00  0.00    +0.030 C 
ATOM     14  C   UNL     1      -2.006  -0.836   0.000  0.00  0.00    +0.117 C 
ATOM     15  C   UNL     1      -1.284  -1.281   0.000  0.00  0.00    +0.026 C 
ATOM     16  C   UNL     1       0.346   0.528   0.000  0.00  0.00    +0.011 C 
ATOM     17  C   UNL     1       0.346   1.398   0.000  0.00  0.00    -0.004 C 
ATOM     18  C   UNL     1       1.105   1.861   0.000  0.00  0.00    +0.002 C 
ATOM     19  C   UNL     1       1.889   1.398   0.000  0.00  0.00    +0.033 C 
ATOM     20  C   UNL     1       1.889   2.688   0.000  0.00  0.00    +0.003 C 
ENDROOT
BRANCH   5  21
ATOM     21  C   UNL     1       3.117   2.509   0.000  0.00  0.00    +0.009 C 
ATOM     22  C   UNL     1       3.993   2.657   0.000  0.00  0.00    +0.231 C 
ATOM     23  O   UNL     1       4.111   3.564   0.000  0.00  0.00    -0.441 OA
ATOM     24  C   UNL     1       3.351   3.947   0.000  0.00  0.00    +0.341 C 
ATOM     25  O   UNL     1       3.012   4.953   0.000  0.00  0.00    -0.245 OA
ATOM     26  C   UNL     1       2.704   3.324   0.000  0.00  0.00    +0.077 C 
ENDBRANCH   5  21
BRANCH   4  27
ATOM     27  O   UNL     1       4.259   0.972   0.000  0.00  0.00    -0.452 OA
BRANCH  27  28
ATOM     28  C   UNL     1       4.777   0.127   0.000  0.00  0.00    +0.317 C 
ATOM     29  C   UNL     1       5.783   0.127   0.000  0.00  0.00    +0.121 C 
ATOM     30  O   UNL     1       4.314  -0.762   0.000  0.00  0.00    -0.250 OA
ENDBRANCH  27  28
ENDBRANCH   4  27
BRANCH  14  31
ATOM     31  O   UNL     1      -2.821  -1.312   0.000  0.00  0.00    -0.333 OA
BRANCH  31  32
ATOM     32  C   UNL     1      -2.821  -2.540   0.000  0.00  0.00    +0.238 C 
ATOM     33  C   UNL     1      -3.580  -3.503   0.000  0.00  0.00    +0.094 C 
ATOM     34  C   UNL     1      -5.030  -3.503   0.000  0.00  0.00    +0.153 C 
ATOM     35  C   UNL     1      -5.783  -2.540   0.000  0.00  0.00    +0.206 C 
ATOM     36  C   UNL     1      -5.030  -1.534   0.000  0.00  0.00    +0.150 C 
ATOM     37  C   UNL     1      -5.018  -2.422   0.000  0.00  0.00    +0.035 C 
ATOM     38  O   UNL     1      -5.771  -1.534   0.000  0.00  0.00    -0.218 OA
ATOM     39  O   UNL     1      -3.580  -1.534   0.000  0.00  0.00    -0.330 OA
BRANCH  34  40
ATOM     40  O   UNL     1      -5.030  -4.391   0.000  0.00  0.00    -0.351 OA
ATOM     41  C   UNL     1      -4.129  -4.953   0.000  0.00  0.00    +0.174 C 
ENDBRANCH  34  40
ENDBRANCH  31  32
ENDBRANCH  14  31
TORSDOF 6
ENDMDL
MODEL      333
REMARK  Name = 1-{[(2-hydroxyethyl)amino]methyl}-9a,11a-dimethyl-hexadecahydro-1H-cyclopenta[a]phenanthren-1-ol
REMARK  4 active torsions:
REMARK  status: ('A' for Active; 'I' for Inactive)
REMARK    1  A    between atoms: C_6  and  C_19
REMARK    2  A    between atoms: N_18  and  C_19
REMARK    3  A    between atoms: N_18  and  C_22
REMARK    4  A    between atoms: C_22  and  C_23
REMARK                            x       y       z     vdW  Elec       q    Type
REMARK                         _______ _______ _______ _____ _____    ______ ____
ROOT
ATOM      1  C   UNL     1      -0.475   1.176   0.000  0.00  0.00    +0.027 C 
ATOM      2  C   UNL     1      -0.475   2.100   0.000  0.00  0.00    +0.002 C 
ATOM      3  C   UNL     1      -1.337   1.685   0.000  0.00  0.00    +0.002 C 
ATOM      4  C   UNL     1      -2.206   1.176   0.000  0.00  0.00    +0.000 C 
ATOM      5  C   UNL     1      -2.206   0.164   0.000  0.00  0.00    -0.000 C 
ATOM      6  C   UNL     1      -1.337  -0.344   0.000  0.00  0.00    +0.000 C 
ATOM      7  C   UNL     1      -1.337  -1.356   0.000  0.00  0.00    -0.000 C 
ATOM      8  C   UNL     1      -2.206  -1.865   0.000  0.00  0.00    -0.004 C 
ATOM      9  C   UNL     1      -3.068  -1.356   0.000  0.00  0.00    +0.013 C 
ATOM     10  C   UNL     1      -3.931  -1.865   0.000  0.00  0.00    -0.004 C 
ATOM     11  C   UNL     1      -4.793  -1.356   0.000  0.00  0.00    -0.000 C 
ATOM     12  C   UNL     1      -4.824  -0.344   0.000  0.00  0.00    -0.000 C 
ATOM     13  C   UNL     1      -3.931   0.164   0.000  0.00  0.00    -0.000 C 
ATOM     14  C   UNL     1      -3.068  -0.344   0.000  0.00  0.00    -0.003 C 
ATOM     15  C   UNL     1      -3.068   0.667   0.000  0.00  0.00    -0.000 C 
ATOM     16  C   UNL     1       0.475   1.505   0.000  0.00  0.00    +0.142 C 
ATOM     17  O   UNL     1       0.475   2.367   0.000  0.00  0.00    -0.224 OA
ATOM     18  C   UNL     1       1.070   0.667   0.000  0.00  0.00    +0.032 C 
ATOM     19  C   UNL     1       0.506  -0.164   0.000  0.00  0.00    +0.003 C 
ATOM     20  C   UNL     1      -0.475   0.164   0.000  0.00  0.00    +0.002 C 
ENDROOT
BRANCH  16  21
ATOM     21  C   UNL     1       1.430   1.833   0.000  0.00  0.00    +0.119 C 
BRANCH  21  22
ATOM     22  N   UNL     1       2.206   1.176   0.000  0.00  0.00    -0.213 NA
BRANCH  22  23
ATOM     23  C   UNL     1       3.131   1.505   0.000  0.00  0.00    +0.124 C 
BRANCH  23  24
ATOM     24  C   UNL     1       3.900   0.847   0.000  0.00  0.00    +0.201 C 
ATOM     25  O   UNL     1       4.824   1.176   0.000  0.00  0.00    -0.219 OA
ENDBRANCH  23  24
ENDBRANCH  22  23
ENDBRANCH  21  22
ENDBRANCH  16  21
TORSDOF 4
ENDMDL
MODEL      334
REMARK  Name = 2-[(2-{[4,5-DIHYDROXY-2-(HYDROXYMETHYL)-6-{5,7',9',13'-TETRAMETHYL-5'-OXASPIRO[OXANE-2,6'-PENTACYCLO[10.8.0.0^(2,9).0^(4,8).0^(13,18)]ICOSANE]OXY}OXAN-3-YL]OXY}-4,5-DIHYDROXY-6-(HYDROXYMETHYL)OXAN-3-Y L)OXY]-6-(HYDROXYMETHYL)OXANE-3,4,5-TRIOL
REMARK  9 active torsions:
REMARK  status: ('A' for Active; 'I' for Inactive)
REMARK    1  A    between atoms: C_2  and  O_18
REMARK    2  A    between atoms: C_4  and  O_24
REMARK    3  A    between atoms: C_6  and  O_18
REMARK    4  A    between atoms: C_7  and  O_24
REMARK    5  A    between atoms: C_8  and  O_36
REMARK    6  A    between atoms: C_27  and  C_55
REMARK    7  A    between atoms: C_28  and  C_56
REMARK    8  A    between atoms: C_29  and  C_57
REMARK    9  A    between atoms: O_36  and  C_42
REMARK                            x       y       z     vdW  Elec       q    Type
REMARK                         _______ _______ _______ _____ _____    ______ ____
ROOT
ATOM      1  C   UNL     1      -1.565  -0.566   0.000  0.00  0.00    +0.269 C 
ATOM      2  O   UNL     1      -2.229   0.313   0.000  0.00  0.00    -0.326 OA
ATOM      3  C   UNL     1      -3.519   0.313   0.000  0.00  0.00    +0.180 C 
ATOM      4  C   UNL     1      -4.171  -0.566   0.000  0.00  0.00    +0.180 C 
ATOM      5  C   UNL     1      -3.519  -1.420   0.000  0.00  0.00    +0.217 C 
ATOM      6  O   UNL     1      -3.538  -0.793   0.000  0.00  0.00    -0.218 OA
ATOM      7  C   UNL     1      -2.229  -1.420   0.000  0.00  0.00    +0.240 C 
ATOM      8  O   UNL     1      -2.229  -1.932   0.000  0.00  0.00    -0.215 OA
ENDROOT
BRANCH   3   9
ATOM      9  C   UNL     1      -3.519   0.857   0.000  0.00  0.00    +0.214 C 
ATOM     10  O   UNL     1      -2.685   1.357   0.000  0.00  0.00    -0.218 OA
ENDBRANCH   3   9
BRANCH   1  11
ATOM     11  O   UNL     1      -1.565   0.041   0.000  0.00  0.00    -0.331 OA
BRANCH  11  22
ATOM     12  C   UNL     1       4.082   3.014   0.000  0.00  0.00    +0.002 C 
ATOM     13  C   UNL     1       4.070   3.956   0.000  0.00  0.00    +0.000 C 
ATOM     14  C   UNL     1       3.311   3.456   0.000  0.00  0.00    +0.000 C 
ATOM     15  C   UNL     1       2.533   3.014   0.000  0.00  0.00    -0.000 C 
ATOM     16  C   UNL     1       2.533   2.115   0.000  0.00  0.00    -0.000 C 
ATOM     17  C   UNL     1       3.311   1.679   0.000  0.00  0.00    +0.000 C 
ATOM     18  C   UNL     1       3.311   0.800   0.000  0.00  0.00    -0.000 C 
ATOM     19  C   UNL     1       2.533   0.357   0.000  0.00  0.00    -0.004 C 
ATOM     20  C   UNL     1       1.761   0.800   0.000  0.00  0.00    +0.015 C 
ATOM     21  C   UNL     1       0.971   0.357   0.000  0.00  0.00    +0.026 C 
ATOM     22  C   UNL     1       0.199   0.800   0.000  0.00  0.00    +0.118 C 
ATOM     23  C   UNL     1       0.199   1.679   0.000  0.00  0.00    +0.030 C 
ATOM     24  C   UNL     1       0.971   2.115   0.000  0.00  0.00    +0.002 C 
ATOM     25  C   UNL     1       1.761   1.679   0.000  0.00  0.00    -0.003 C 
ATOM     26  C   UNL     1       1.761   2.621   0.000  0.00  0.00    -0.000 C 
ATOM     27  C   UNL     1       4.860   3.456   0.000  0.00  0.00    +0.032 C 
ATOM     28  C   UNL     1       4.829   4.139   0.000  0.00  0.00    +0.054 C 
ATOM     29  C   UNL     1       3.949   4.695   0.000  0.00  0.00    +0.005 C 
ATOM     30  C   UNL     1       6.251   4.240   0.000  0.00  0.00    +0.187 C 
ATOM     31  O   UNL     1       6.302   3.532   0.000  0.00  0.00    -0.337 OA
ATOM     32  C   UNL     1       7.194   4.595   0.000  0.00  0.00    +0.056 C 
ATOM     33  C   UNL     1       8.243   4.215   0.000  0.00  0.00    +0.007 C 
ATOM     34  C   UNL     1       9.091   5.486   0.000  0.00  0.00    +0.030 C 
ATOM     35  C   UNL     1       8.104   4.987   0.000  0.00  0.00    +0.145 C 
ATOM     36  C   UNL     1       9.091   6.428   0.000  0.00  0.00    +0.003 C 
ATOM     37  O   UNL     1       7.011   5.398   0.000  0.00  0.00    -0.334 OA
ATOM     38  C   UNL     1       5.632   3.014   0.000  0.00  0.00    +0.118 C 
ATOM     39  C   UNL     1       5.632   2.115   0.000  0.00  0.00    +0.030 C 
ATOM     40  C   UNL     1       4.082   2.115   0.000  0.00  0.00    +0.002 C 
ENDBRANCH  11  22
ENDBRANCH   1  11
BRANCH   4  41
ATOM     41  O   UNL     1      -5.069   0.174   0.000  0.00  0.00    -0.326 OA
BRANCH  41  42
ATOM     42  C   UNL     1      -5.859  -0.477   0.000  0.00  0.00    +0.266 C 
ATOM     43  O   UNL     1      -6.529   0.401   0.000  0.00  0.00    -0.326 OA
ATOM     44  C   UNL     1      -7.813   0.401   0.000  0.00  0.00    +0.183 C 
ATOM     45  C   UNL     1      -8.471  -0.477   0.000  0.00  0.00    +0.214 C 
ATOM     46  C   UNL     1      -7.813  -1.325   0.000  0.00  0.00    +0.217 C 
ATOM     47  O   UNL     1      -7.813  -0.781   0.000  0.00  0.00    -0.218 OA
ATOM     48  O   UNL     1      -8.471  -1.053   0.000  0.00  0.00    -0.218 OA
ATOM     49  C   UNL     1      -6.529  -1.325   0.000  0.00  0.00    +0.207 C 
BRANCH  44  50
ATOM     50  C   UNL     1      -7.813   0.952   0.000  0.00  0.00    +0.214 C 
ATOM     51  O   UNL     1      -6.953   1.299   0.000  0.00  0.00    -0.218 OA
ENDBRANCH  44  50
BRANCH  49  52
ATOM     52  O   UNL     1      -6.529  -1.843   0.000  0.00  0.00    -0.323 OA
BRANCH  52  53
ATOM     53  C   UNL     1      -6.479  -5.062   0.000  0.00  0.00    +0.270 C 
ATOM     54  O   UNL     1      -7.149  -4.184   0.000  0.00  0.00    -0.326 OA
ATOM     55  C   UNL     1      -8.440  -4.184   0.000  0.00  0.00    +0.183 C 
ATOM     56  C   UNL     1      -9.091  -5.062   0.000  0.00  0.00    +0.214 C 
ATOM     57  C   UNL     1      -8.440  -5.910   0.000  0.00  0.00    +0.220 C 
ATOM     58  O   UNL     1      -8.440  -5.366   0.000  0.00  0.00    -0.217 OA
ATOM     59  O   UNL     1      -9.091  -5.638   0.000  0.00  0.00    -0.218 OA
ATOM     60  C   UNL     1      -7.149  -5.910   0.000  0.00  0.00    +0.241 C 
ATOM     61  O   UNL     1      -7.149  -6.428   0.000  0.00  0.00    -0.215 OA
BRANCH  55  62
ATOM     62  C   UNL     1      -8.440  -3.633   0.000  0.00  0.00    +0.214 C 
ATOM     63  O   UNL     1      -7.604  -3.197   0.000  0.00  0.00    -0.218 OA
ENDBRANCH  55  62
ENDBRANCH  52  53
ENDBRANCH  49  52
ENDBRANCH  41  42
ENDBRANCH   4  41
TORSDOF 9
ENDMDL
MODEL      335
REMARK  Name = 2-{[5-HYDROXY-6-(HYDROXYMETHYL)-2-{5,7',9',13'-TETRAMETHYL-5'-OXASPIRO[OXANE-2,6'-PENTACYCLO[10.8.0.0^(2,9).0^(4,8).0^(13,18)]ICOSAN]-18'-ENEOXY}-4-[(3,4,5-TRIHYDROXY-6-METHYLOXAN-2-YL)OXY]OXAN-3-YL]O XY}-6-(HYDROXYMETHYL)OXANE-3,4,5-TRIOL
REMARK  8 active torsions:
REMARK  status: ('A' for Active; 'I' for Inactive)
REMARK    1  A    between atoms: C_2  and  O_18
REMARK    2  A    between atoms: C_3  and  O_19
REMARK    3  A    between atoms: C_6  and  O_18
REMARK    4  A    between atoms: C_7  and  O_19
REMARK    5  A    between atoms: C_8  and  O_38
REMARK    6  A    between atoms: C_28  and  C_55
REMARK    7  A    between atoms: C_29  and  C_56
REMARK    8  A    between atoms: O_38  and  C_42
REMARK                            x       y       z     vdW  Elec       q    Type
REMARK                         _______ _______ _______ _____ _____    ______ ____
ROOT
ATOM      1  C   UNL     1      -2.068  -0.159   0.000  0.00  0.00    +0.266 C 
ATOM      2  O   UNL     1      -2.728   0.713   0.000  0.00  0.00    -0.326 OA
ATOM      3  C   UNL     1      -3.999   0.713   0.000  0.00  0.00    +0.183 C 
ATOM      4  C   UNL     1      -4.640  -0.159   0.000  0.00  0.00    +0.211 C 
ATOM      5  C   UNL     1      -3.999  -0.993   0.000  0.00  0.00    +0.183 C 
ATOM      6  O   UNL     1      -4.640  -0.726   0.000  0.00  0.00    -0.218 OA
ATOM      7  C   UNL     1      -2.728  -0.993   0.000  0.00  0.00    +0.203 C 
ENDROOT
BRANCH   3   8
ATOM      8  C   UNL     1      -3.999   1.249   0.000  0.00  0.00    +0.214 C 
ATOM      9  O   UNL     1      -3.232   1.772   0.000  0.00  0.00    -0.218 OA
ENDBRANCH   3   8
BRANCH   1  10
ATOM     10  O   UNL     1      -2.130   0.726   0.000  0.00  0.00    -0.331 OA
BRANCH  10  21
ATOM     11  C   UNL     1       2.535   3.354   0.000  0.00  0.00    +0.003 C 
ATOM     12  C   UNL     1       2.523   4.282   0.000  0.00  0.00    +0.000 C 
ATOM     13  C   UNL     1       1.775   3.790   0.000  0.00  0.00    +0.000 C 
ATOM     14  C   UNL     1       1.009   3.354   0.000  0.00  0.00    +0.000 C 
ATOM     15  C   UNL     1       1.009   2.476   0.000  0.00  0.00    +0.004 C 
ATOM     16  C   UNL     1       1.775   2.040   0.000  0.00  0.00    +0.005 C 
ATOM     17  C   UNL     1       1.775   1.174   0.000  0.00  0.00    +0.025 C 
ATOM     18  C   UNL     1       1.009   0.738   0.000  0.00  0.00    -0.035 C 
ATOM     19  C   UNL     1       0.249   1.174   0.000  0.00  0.00    -0.047 C 
ATOM     20  C   UNL     1      -0.529   0.738   0.000  0.00  0.00    +0.051 C 
ATOM     21  C   UNL     1      -1.289   1.174   0.000  0.00  0.00    +0.122 C 
ATOM     22  C   UNL     1      -1.289   2.040   0.000  0.00  0.00    +0.030 C 
ATOM     23  C   UNL     1      -0.529   2.476   0.000  0.00  0.00    +0.006 C 
ATOM     24  C   UNL     1       0.249   2.040   0.000  0.00  0.00    +0.015 C 
ATOM     25  C   UNL     1       0.249   2.968   0.000  0.00  0.00    +0.004 C 
ATOM     26  C   UNL     1       3.295   3.790   0.000  0.00  0.00    +0.032 C 
ATOM     27  C   UNL     1       3.270   4.463   0.000  0.00  0.00    +0.054 C 
ATOM     28  C   UNL     1       2.398   5.017   0.000  0.00  0.00    +0.005 C 
ATOM     29  C   UNL     1       4.671   4.569   0.000  0.00  0.00    +0.187 C 
ATOM     30  O   UNL     1       4.715   3.865   0.000  0.00  0.00    -0.337 OA
ATOM     31  C   UNL     1       5.599   4.911   0.000  0.00  0.00    +0.056 C 
ATOM     32  C   UNL     1       6.633   4.538   0.000  0.00  0.00    +0.007 C 
ATOM     33  C   UNL     1       7.499   5.210   0.000  0.00  0.00    +0.030 C 
ATOM     34  C   UNL     1       6.558   5.061   0.000  0.00  0.00    +0.145 C 
ATOM     35  C   UNL     1       8.035   4.475   0.000  0.00  0.00    +0.003 C 
ATOM     36  O   UNL     1       5.494   5.553   0.000  0.00  0.00    -0.334 OA
ATOM     37  C   UNL     1       4.061   3.354   0.000  0.00  0.00    +0.118 C 
ATOM     38  C   UNL     1       4.061   2.476   0.000  0.00  0.00    +0.030 C 
ATOM     39  C   UNL     1       2.535   2.476   0.000  0.00  0.00    +0.003 C 
ENDBRANCH  10  21
ENDBRANCH   1  10
BRANCH   5  40
ATOM     40  O   UNL     1      -5.163   2.924   0.000  0.00  0.00    -0.326 OA
BRANCH  40  41
ATOM     41  C   UNL     1      -5.431   2.308   0.000  0.00  0.00    +0.269 C 
ATOM     42  O   UNL     1      -6.091   3.180   0.000  0.00  0.00    -0.328 OA
ATOM     43  C   UNL     1      -7.362   3.180   0.000  0.00  0.00    +0.151 C 
ATOM     44  C   UNL     1      -7.406   2.594   0.000  0.00  0.00    +0.035 C 
ATOM     45  C   UNL     1      -8.004   2.308   0.000  0.00  0.00    +0.212 C 
ATOM     46  C   UNL     1      -7.362   1.473   0.000  0.00  0.00    +0.220 C 
ATOM     47  O   UNL     1      -7.375   0.919   0.000  0.00  0.00    -0.217 OA
ATOM     48  O   UNL     1      -8.035   3.030   0.000  0.00  0.00    -0.218 OA
ATOM     49  C   UNL     1      -6.091   1.473   0.000  0.00  0.00    +0.241 C 
ATOM     50  O   UNL     1      -6.091   0.962   0.000  0.00  0.00    -0.215 OA
ENDBRANCH  40  41
ENDBRANCH   5  40
BRANCH   7  51
ATOM     51  O   UNL     1      -2.728  -1.504   0.000  0.00  0.00    -0.323 OA
BRANCH  51  52
ATOM     52  C   UNL     1      -2.697  -4.207   0.000  0.00  0.00    +0.270 C 
ATOM     53  O   UNL     1      -3.357  -3.342   0.000  0.00  0.00    -0.326 OA
ATOM     54  C   UNL     1      -4.628  -3.342   0.000  0.00  0.00    +0.183 C 
ATOM     55  C   UNL     1      -5.269  -4.207   0.000  0.00  0.00    +0.214 C 
ATOM     56  C   UNL     1      -4.628  -5.042   0.000  0.00  0.00    +0.220 C 
ATOM     57  O   UNL     1      -4.628  -4.506   0.000  0.00  0.00    -0.217 OA
ATOM     58  O   UNL     1      -5.269  -4.774   0.000  0.00  0.00    -0.218 OA
ATOM     59  C   UNL     1      -3.357  -5.042   0.000  0.00  0.00    +0.241 C 
ATOM     60  O   UNL     1      -3.357  -5.553   0.000  0.00  0.00    -0.215 OA
BRANCH  54  61
ATOM     61  C   UNL     1      -4.628  -2.800   0.000  0.00  0.00    +0.214 C 
ATOM     62  O   UNL     1      -3.805  -2.370   0.000  0.00  0.00    -0.218 OA
ENDBRANCH  54  61
ENDBRANCH  51  52
ENDBRANCH   7  51
TORSDOF 8
ENDMDL
MODEL      336
REMARK  Name = (2alpha,5alpha)-2-hydroxyspirostan-3-yl hexopyranosyl-(1->2)hexopyranosyl-(1->4)hexopyranoside
REMARK  9 active torsions:
REMARK  status: ('A' for Active; 'I' for Inactive)
REMARK    1  A    between atoms: C_2  and  O_19
REMARK    2  A    between atoms: C_4  and  O_24
REMARK    3  A    between atoms: C_7  and  O_19
REMARK    4  A    between atoms: C_8  and  O_35
REMARK    5  A    between atoms: C_9  and  O_24
REMARK    6  A    between atoms: C_27  and  C_56
REMARK    7  A    between atoms: C_28  and  C_57
REMARK    8  A    between atoms: C_29  and  C_58
REMARK    9  A    between atoms: O_35  and  C_37
REMARK                            x       y       z     vdW  Elec       q    Type
REMARK                         _______ _______ _______ _____ _____    ______ ____
ROOT
ATOM      1  C   UNL     1      -0.836   0.353   0.000  0.00  0.00    +0.269 C 
ATOM      2  O   UNL     1      -1.604   1.323   0.000  0.00  0.00    -0.326 OA
ATOM      3  C   UNL     1      -3.034   1.323   0.000  0.00  0.00    +0.180 C 
ATOM      4  C   UNL     1      -3.761   0.353   0.000  0.00  0.00    +0.180 C 
ATOM      5  C   UNL     1      -3.034  -0.566   0.000  0.00  0.00    +0.217 C 
ATOM      6  O   UNL     1      -3.034   0.207   0.000  0.00  0.00    -0.218 OA
ATOM      7  C   UNL     1      -1.604  -0.566   0.000  0.00  0.00    +0.240 C 
ATOM      8  O   UNL     1      -1.604  -1.561   0.000  0.00  0.00    -0.215 OA
ENDROOT
BRANCH   3   9
ATOM      9  C   UNL     1      -3.034   1.950   0.000  0.00  0.00    +0.214 C 
ATOM     10  O   UNL     1      -2.306   2.289   0.000  0.00  0.00    -0.218 OA
ENDBRANCH   3   9
BRANCH   1  11
ATOM     11  O   UNL     1      -0.669   1.723   0.000  0.00  0.00    -0.328 OA
BRANCH  11  22
ATOM     12  C   UNL     1       3.322   4.051   0.000  0.00  0.00    +0.002 C 
ATOM     13  C   UNL     1       3.271   5.032   0.000  0.00  0.00    +0.000 C 
ATOM     14  C   UNL     1       2.640   4.436   0.000  0.00  0.00    +0.000 C 
ATOM     15  C   UNL     1       2.013   4.051   0.000  0.00  0.00    -0.000 C 
ATOM     16  C   UNL     1       2.013   3.284   0.000  0.00  0.00    -0.000 C 
ATOM     17  C   UNL     1       2.640   2.910   0.000  0.00  0.00    +0.000 C 
ATOM     18  C   UNL     1       2.640   2.132   0.000  0.00  0.00    -0.000 C 
ATOM     19  C   UNL     1       2.013   1.723   0.000  0.00  0.00    -0.004 C 
ATOM     20  C   UNL     1       1.347   2.132   0.000  0.00  0.00    +0.015 C 
ATOM     21  C   UNL     1       0.690   1.723   0.000  0.00  0.00    +0.028 C 
ATOM     22  C   UNL     1       0.013   2.132   0.000  0.00  0.00    +0.148 C 
ATOM     23  C   UNL     1       0.013   2.910   0.000  0.00  0.00    +0.179 C 
ATOM     24  O   UNL     1      -0.861   3.420   0.000  0.00  0.00    -0.221 OA
ATOM     25  C   UNL     1       0.690   3.284   0.000  0.00  0.00    +0.035 C 
ATOM     26  C   UNL     1       1.347   2.910   0.000  0.00  0.00    -0.001 C 
ATOM     27  C   UNL     1       1.347   3.673   0.000  0.00  0.00    -0.000 C 
ATOM     28  C   UNL     1       3.989   4.436   0.000  0.00  0.00    +0.032 C 
ATOM     29  C   UNL     1       3.989   5.224   0.000  0.00  0.00    +0.054 C 
ATOM     30  C   UNL     1       3.347   5.770   0.000  0.00  0.00    +0.005 C 
ATOM     31  C   UNL     1       5.307   5.224   0.000  0.00  0.00    +0.187 C 
ATOM     32  O   UNL     1       5.307   4.436   0.000  0.00  0.00    -0.337 OA
ATOM     33  C   UNL     1       6.015   5.648   0.000  0.00  0.00    +0.056 C 
ATOM     34  C   UNL     1       6.717   5.239   0.000  0.00  0.00    +0.007 C 
ATOM     35  C   UNL     1       7.323   6.149   0.000  0.00  0.00    +0.030 C 
ATOM     36  C   UNL     1       6.560   5.830   0.000  0.00  0.00    +0.145 C 
ATOM     37  C   UNL     1       8.051   5.603   0.000  0.00  0.00    +0.003 C 
ATOM     38  O   UNL     1       5.904   6.254   0.000  0.00  0.00    -0.334 OA
ATOM     39  C   UNL     1       4.656   4.051   0.000  0.00  0.00    +0.118 C 
ATOM     40  C   UNL     1       4.656   3.284   0.000  0.00  0.00    +0.030 C 
ATOM     41  C   UNL     1       3.322   3.284   0.000  0.00  0.00    +0.002 C 
ENDBRANCH  11  22
ENDBRANCH   1  11
BRANCH   4  42
ATOM     42  O   UNL     1      -3.797   1.369   0.000  0.00  0.00    -0.326 OA
BRANCH  42  43
ATOM     43  C   UNL     1      -4.438  -0.212   0.000  0.00  0.00    +0.266 C 
ATOM     44  O   UNL     1      -5.201   0.773   0.000  0.00  0.00    -0.326 OA
ATOM     45  C   UNL     1      -6.636   0.773   0.000  0.00  0.00    +0.183 C 
ATOM     46  C   UNL     1      -7.399  -0.212   0.000  0.00  0.00    +0.214 C 
ATOM     47  C   UNL     1      -6.636  -1.157   0.000  0.00  0.00    +0.217 C 
ATOM     48  O   UNL     1      -6.636  -0.313   0.000  0.00  0.00    -0.218 OA
ATOM     49  O   UNL     1      -7.373  -1.182   0.000  0.00  0.00    -0.218 OA
ATOM     50  C   UNL     1      -5.201  -1.157   0.000  0.00  0.00    +0.207 C 
BRANCH  45  51
ATOM     51  C   UNL     1      -6.636   1.723   0.000  0.00  0.00    +0.214 C 
ATOM     52  O   UNL     1      -5.823   2.218   0.000  0.00  0.00    -0.218 OA
ENDBRANCH  45  51
BRANCH  50  53
ATOM     53  O   UNL     1      -5.201  -2.203   0.000  0.00  0.00    -0.323 OA
BRANCH  53  54
ATOM     54  C   UNL     1      -5.130  -4.360   0.000  0.00  0.00    +0.270 C 
ATOM     55  O   UNL     1      -5.883  -3.390   0.000  0.00  0.00    -0.326 OA
ATOM     56  C   UNL     1      -7.323  -3.390   0.000  0.00  0.00    +0.183 C 
ATOM     57  C   UNL     1      -8.051  -4.360   0.000  0.00  0.00    +0.214 C 
ATOM     58  C   UNL     1      -7.323  -5.330   0.000  0.00  0.00    +0.220 C 
ATOM     59  O   UNL     1      -7.323  -4.411   0.000  0.00  0.00    -0.217 OA
ATOM     60  O   UNL     1      -8.051  -5.381   0.000  0.00  0.00    -0.218 OA
ATOM     61  C   UNL     1      -5.883  -5.330   0.000  0.00  0.00    +0.241 C 
ATOM     62  O   UNL     1      -5.883  -6.254   0.000  0.00  0.00    -0.215 OA
BRANCH  56  63
ATOM     63  C   UNL     1      -7.323  -2.799   0.000  0.00  0.00    +0.214 C 
ATOM     64  O   UNL     1      -8.030  -2.445   0.000  0.00  0.00    -0.218 OA
ENDBRANCH  56  63
ENDBRANCH  53  54
ENDBRANCH  50  53
ENDBRANCH  42  43
ENDBRANCH   4  42
TORSDOF 9
ENDMDL
MODEL      337
REMARK  Name = 1-(2-hydroxy-4a,6a-dimethyl-1,2,3,4,4a,4b,5,6,6a,7a,8,8a,8b,9-tetradecahydro-6bH-naphtho[2',1':4,5]indeno[1,2-b]oxiren-6-yl)-1-ethanone
REMARK  1 active torsions:
REMARK  status: ('A' for Active; 'I' for Inactive)
REMARK    1  A    between atoms: C_1  and  C_13
REMARK                            x       y       z     vdW  Elec       q    Type
REMARK                         _______ _______ _______ _____ _____    ______ ____
ROOT
ATOM      1  C   UNL     1       2.523   0.990   0.000  0.00  0.00    +0.168 C 
ATOM      2  C   UNL     1       3.122   0.235   0.000  0.00  0.00    +0.147 C 
ATOM      3  C   UNL     1       2.557  -0.561   0.000  0.00  0.00    +0.033 C 
ATOM      4  C   UNL     1       1.605  -0.303   0.000  0.00  0.00    +0.006 C 
ATOM      5  C   UNL     1       0.728  -0.779   0.000  0.00  0.00    +0.005 C 
ATOM      6  C   UNL     1      -0.156  -0.303   0.000  0.00  0.00    +0.004 C 
ATOM      7  C   UNL     1      -0.156   0.690   0.000  0.00  0.00    +0.000 C 
ATOM      8  C   UNL     1       0.728   1.214   0.000  0.00  0.00    +0.003 C 
ATOM      9  C   UNL     1      -0.986  -0.779   0.000  0.00  0.00    +0.015 C 
ATOM     10  C   UNL     1      -0.986   0.173   0.000  0.00  0.00    +0.004 C 
ATOM     11  C   UNL     1      -1.870  -0.303   0.000  0.00  0.00    +0.006 C 
ATOM     12  C   UNL     1      -2.768  -0.779   0.000  0.00  0.00    +0.034 C 
ATOM     13  C   UNL     1      -2.768  -1.840   0.000  0.00  0.00    +0.156 C 
ATOM     14  C   UNL     1      -1.870  -2.309   0.000  0.00  0.00    +0.055 C 
ATOM     15  O   UNL     1      -3.632  -2.357   0.000  0.00  0.00    -0.223 OA
ATOM     16  C   UNL     1      -0.986  -1.840   0.000  0.00  0.00    -0.047 C 
ATOM     17  C   UNL     1      -0.156  -2.309   0.000  0.00  0.00    -0.035 C 
ATOM     18  C   UNL     1       0.728  -1.840   0.000  0.00  0.00    +0.025 C 
ATOM     19  O   UNL     1       3.632   1.051   0.000  0.00  0.00    -0.349 OA
ATOM     20  C   UNL     1       1.605   0.690   0.000  0.00  0.00    +0.032 C 
ATOM     21  C   UNL     1       1.605   1.724   0.000  0.00  0.00    +0.003 C 
ENDROOT
BRANCH   1  22
ATOM     22  C   UNL     1       2.523   1.887   0.000  0.00  0.00    +0.178 C 
ATOM     23  C   UNL     1       1.659   2.357   0.000  0.00  0.00    +0.075 C 
ATOM     24  O   UNL     1       3.421   2.322   0.000  0.00  0.00    -0.294 OA
ENDBRANCH   1  22
TORSDOF 1
ENDMDL
MODEL      338
REMARK  Name = 6b-acetyl-4a,6a-dimethyl-1H,2H,3H,4H,4aH,4bH,5H,6H,6aH,6bH,7H,10H,10aH,11H,11aH,11bH,12H-indeno[2,1-a]phenanthren-2-yl acetate
REMARK  3 active torsions:
REMARK  status: ('A' for Active; 'I' for Inactive)
REMARK    1  A    between atoms: C_3  and  C_15
REMARK    2  A    between atoms: C_17  and  O_18
REMARK    3  A    between atoms: O_18  and  C_19
REMARK                            x       y       z     vdW  Elec       q    Type
REMARK                         _______ _______ _______ _____ _____    ______ ____
ROOT
ATOM      1  C   UNL     1       1.584   1.123   0.000  0.00  0.00    +0.006 C 
ATOM      2  C   UNL     1       1.584   2.147   0.000  0.00  0.00    +0.000 C 
ATOM      3  C   UNL     1       0.715   1.642   0.000  0.00  0.00    +0.000 C 
ATOM      4  C   UNL     1      -0.162   1.123   0.000  0.00  0.00    +0.000 C 
ATOM      5  C   UNL     1      -0.162   0.138   0.000  0.00  0.00    +0.004 C 
ATOM      6  C   UNL     1       0.715  -0.334   0.000  0.00  0.00    +0.005 C 
ATOM      7  C   UNL     1       0.715  -1.385   0.000  0.00  0.00    +0.025 C 
ATOM      8  C   UNL     1      -0.162  -1.851   0.000  0.00  0.00    -0.035 C 
ATOM      9  C   UNL     1      -0.984  -1.385   0.000  0.00  0.00    -0.046 C 
ATOM     10  C   UNL     1      -1.861  -1.851   0.000  0.00  0.00    +0.065 C 
ATOM     11  C   UNL     1      -2.751  -1.385   0.000  0.00  0.00    +0.173 C 
ATOM     12  C   UNL     1      -2.751  -0.334   0.000  0.00  0.00    +0.044 C 
ATOM     13  C   UNL     1      -1.861   0.138   0.000  0.00  0.00    +0.007 C 
ATOM     14  C   UNL     1      -0.984  -0.334   0.000  0.00  0.00    +0.015 C 
ATOM     15  C   UNL     1      -0.984   0.610   0.000  0.00  0.00    +0.004 C 
ATOM     16  C   UNL     1       2.494   1.419   0.000  0.00  0.00    +0.056 C 
ATOM     17  C   UNL     1       2.831   2.336   0.000  0.00  0.00    +0.033 C 
ATOM     18  C   UNL     1       3.802   2.471   0.000  0.00  0.00    -0.030 C 
ATOM     19  C   UNL     1       4.416   1.722   0.000  0.00  0.00    -0.031 C 
ATOM     20  C   UNL     1       4.079   0.819   0.000  0.00  0.00    +0.026 C 
ATOM     21  C   UNL     1       3.088   0.671   0.000  0.00  0.00    +0.011 C 
ATOM     22  C   UNL     1       2.528  -0.118   0.000  0.00  0.00    +0.001 C 
ATOM     23  C   UNL     1       1.584   0.138   0.000  0.00  0.00    +0.001 C 
ENDROOT
BRANCH  16  24
ATOM     24  C   UNL     1       1.989   2.727   0.000  0.00  0.00    +0.151 C 
ATOM     25  C   UNL     1       0.991   2.741   0.000  0.00  0.00    +0.072 C 
ATOM     26  O   UNL     1       2.589   3.455   0.000  0.00  0.00    -0.296 OA
ENDBRANCH  16  24
BRANCH  11  27
ATOM     27  O   UNL     1      -3.607  -1.898   0.000  0.00  0.00    -0.452 OA
BRANCH  27  28
ATOM     28  C   UNL     1      -3.607  -2.869   0.000  0.00  0.00    +0.317 C 
ATOM     29  C   UNL     1      -4.416  -3.340   0.000  0.00  0.00    +0.121 C 
ATOM     30  O   UNL     1      -2.784  -3.455   0.000  0.00  0.00    -0.250 OA
ENDBRANCH  27  28
ENDBRANCH  11  27
TORSDOF 3
ENDMDL
MODEL      339
REMARK  Name = 1-{2-hydroxy-4a,6a-dimethyl-1H,2H,3H,4H,4aH,4bH,5H,6H,6aH,6bH,7H,8H,9H,10H,10aH,11H,11aH,11bH,12H-indeno[2,1-a]phenanthren-6b-yl}ethan-1-one
REMARK  1 active torsions:
REMARK  status: ('A' for Active; 'I' for Inactive)
REMARK    1  A    between atoms: C_3  and  C_15
REMARK                            x       y       z     vdW  Elec       q    Type
REMARK                         _______ _______ _______ _____ _____    ______ ____
ROOT
ATOM      1  C   UNL     1       1.177   0.343   0.000  0.00  0.00    +0.006 C 
ATOM      2  C   UNL     1       1.177   1.365   0.000  0.00  0.00    +0.000 C 
ATOM      3  C   UNL     1       0.309   0.861   0.000  0.00  0.00    +0.000 C 
ATOM      4  C   UNL     1      -0.565   0.343   0.000  0.00  0.00    +0.000 C 
ATOM      5  C   UNL     1      -0.565  -0.639   0.000  0.00  0.00    +0.004 C 
ATOM      6  C   UNL     1       0.309  -1.109   0.000  0.00  0.00    +0.005 C 
ATOM      7  C   UNL     1       0.309  -2.158   0.000  0.00  0.00    +0.025 C 
ATOM      8  C   UNL     1      -0.565  -2.622   0.000  0.00  0.00    -0.035 C 
ATOM      9  C   UNL     1      -1.385  -2.158   0.000  0.00  0.00    -0.047 C 
ATOM     10  C   UNL     1      -2.259  -2.622   0.000  0.00  0.00    +0.055 C 
ATOM     11  C   UNL     1      -3.147  -2.158   0.000  0.00  0.00    +0.156 C 
ATOM     12  O   UNL     1      -4.001  -2.669   0.000  0.00  0.00    -0.223 OA
ATOM     13  C   UNL     1      -3.147  -1.109   0.000  0.00  0.00    +0.034 C 
ATOM     14  C   UNL     1      -2.259  -0.639   0.000  0.00  0.00    +0.006 C 
ATOM     15  C   UNL     1      -1.385  -1.109   0.000  0.00  0.00    +0.015 C 
ATOM     16  C   UNL     1      -1.385  -0.168   0.000  0.00  0.00    +0.004 C 
ATOM     17  C   UNL     1       2.084   0.639   0.000  0.00  0.00    +0.051 C 
ATOM     18  C   UNL     1       2.421   1.553   0.000  0.00  0.00    +0.007 C 
ATOM     19  C   UNL     1       3.389   1.688   0.000  0.00  0.00    +0.000 C 
ATOM     20  C   UNL     1       4.001   0.941   0.000  0.00  0.00    +0.000 C 
ATOM     21  C   UNL     1       3.664   0.040   0.000  0.00  0.00    +0.000 C 
ATOM     22  C   UNL     1       2.676  -0.108   0.000  0.00  0.00    +0.007 C 
ATOM     23  C   UNL     1       2.118  -0.894   0.000  0.00  0.00    +0.000 C 
ATOM     24  C   UNL     1       1.177  -0.639   0.000  0.00  0.00    +0.001 C 
ENDROOT
BRANCH  17  25
ATOM     25  C   UNL     1       1.580   1.943   0.000  0.00  0.00    +0.150 C 
ATOM     26  C   UNL     1       0.585   1.957   0.000  0.00  0.00    +0.072 C 
ATOM     27  O   UNL     1       2.179   2.669   0.000  0.00  0.00    -0.296 OA
ENDBRANCH  17  25
TORSDOF 1
ENDMDL
MODEL      340
REMARK  Name = 4-{3a,5a,7-trihydroxy-9a-[(E)-[(2-hydroxyethyl)imino]methyl]-11a-methyl-hexadecahydro-1H-cyclopenta[a]phenanthren-1-yl}-2,5-dihydrofuran-2-one
REMARK  4 active torsions:
REMARK  status: ('A' for Active; 'I' for Inactive)
REMARK    1  A    between atoms: C_2  and  C_21
REMARK    2  A    between atoms: C_7  and  C_8
REMARK    3  A    between atoms: N_22  and  C_31
REMARK    4  A    between atoms: C_31  and  C_32
REMARK                            x       y       z     vdW  Elec       q    Type
REMARK                         _______ _______ _______ _____ _____    ______ ____
ROOT
ATOM      1  C   UNL     1       1.137  -0.742   0.000  0.00  0.00    +0.123 C 
ATOM      2  O   UNL     1       1.137  -1.748   0.000  0.00  0.00    -0.226 OA
ATOM      3  C   UNL     1       2.069  -1.081   0.000  0.00  0.00    +0.030 C 
ATOM      4  C   UNL     1       2.632  -0.253   0.000  0.00  0.00    +0.007 C 
ATOM      5  C   UNL     1       2.039   0.550   0.000  0.00  0.00    +0.024 C 
ATOM      6  C   UNL     1       0.260  -1.260   0.000  0.00  0.00    +0.038 C 
ATOM      7  C   UNL     1       0.260  -2.267   0.000  0.00  0.00    +0.001 C 
ATOM      8  C   UNL     1      -0.618  -2.774   0.000  0.00  0.00    +0.031 C 
ATOM      9  C   UNL     1      -1.476  -2.267   0.000  0.00  0.00    +0.133 C 
ATOM     10  C   UNL     1      -1.476  -1.260   0.000  0.00  0.00    +0.058 C 
ATOM     11  C   UNL     1      -2.335  -0.742   0.000  0.00  0.00    +0.010 C 
ATOM     12  C   UNL     1      -3.225  -1.260   0.000  0.00  0.00    +0.033 C 
ATOM     13  C   UNL     1      -3.225  -2.267   0.000  0.00  0.00    +0.154 C 
ATOM     14  O   UNL     1      -4.114  -2.774   0.000  0.00  0.00    -0.223 OA
ATOM     15  O   UNL     1      -1.476  -3.218   0.000  0.00  0.00    -0.225 OA
ATOM     16  C   UNL     1      -2.335  -2.774   0.000  0.00  0.00    +0.064 C 
ATOM     17  C   UNL     1      -0.618  -0.742   0.000  0.00  0.00    +0.019 C 
ATOM     18  C   UNL     1      -0.618   0.253   0.000  0.00  0.00    -0.004 C 
ATOM     19  C   UNL     1       0.229   0.760   0.000  0.00  0.00    +0.002 C 
ATOM     20  C   UNL     1       1.137   0.296   0.000  0.00  0.00    +0.029 C 
ATOM     21  C   UNL     1       1.137   1.260   0.000  0.00  0.00    +0.003 C 
ENDROOT
BRANCH   5  22
ATOM     22  C   UNL     1       2.304   1.501   0.000  0.00  0.00    +0.005 C 
ATOM     23  C   UNL     1       1.594   2.403   0.000  0.00  0.00    +0.231 C 
ATOM     24  O   UNL     1       2.292   3.132   0.000  0.00  0.00    -0.441 OA
ATOM     25  C   UNL     1       3.256   2.743   0.000  0.00  0.00    +0.341 C 
ATOM     26  O   UNL     1       4.114   3.218   0.000  0.00  0.00    -0.245 OA
ATOM     27  C   UNL     1       3.256   1.853   0.000  0.00  0.00    +0.077 C 
ENDBRANCH   5  22
BRANCH  10  28
ATOM     28  C   UNL     1      -1.476  -0.266   0.000  0.00  0.00    +0.068 C 
ATOM     29  N   UNL     1      -2.335   0.222   0.000  0.00  0.00    -0.271 NA
BRANCH  29  30
ATOM     30  C   UNL     1      -2.335   1.217   0.000  0.00  0.00    +0.161 C 
BRANCH  30  31
ATOM     31  C   UNL     1      -3.194   1.705   0.000  0.00  0.00    +0.208 C 
ATOM     32  O   UNL     1      -4.052   1.217   0.000  0.00  0.00    -0.218 OA
ENDBRANCH  30  31
ENDBRANCH  29  30
ENDBRANCH  10  28
TORSDOF 4
ENDMDL
MODEL      341
REMARK  Name = (6bS,7aR)-7a-acetyl-4a,6a-dimethyl-2,3,4,4a,4b,5,6,6a,6b,7a,8,8a,8b,9-tetradecahydro-1H-naphtho[2',1':4,5]indeno[1,2-b]oxiren-2-yl acetate
REMARK  3 active torsions:
REMARK  status: ('A' for Active; 'I' for Inactive)
REMARK    1  A    between atoms: C_1  and  C_11
REMARK    2  A    between atoms: C_18  and  O_19
REMARK    3  A    between atoms: O_19  and  C_20
REMARK                            x       y       z     vdW  Elec       q    Type
REMARK                         _______ _______ _______ _____ _____    ______ ____
ROOT
ATOM      1  C   UNL     1       2.945   1.371   0.000  0.00  0.00    +0.168 C 
ATOM      2  C   UNL     1       2.365   0.531   0.000  0.00  0.00    +0.037 C 
ATOM      3  C   UNL     1       1.410   0.822   0.000  0.00  0.00    +0.006 C 
ATOM      4  C   UNL     1       1.410   1.848   0.000  0.00  0.00    +0.028 C 
ATOM      5  C   UNL     1       1.418   2.803   0.000  0.00  0.00    +0.003 C 
ATOM      6  C   UNL     1       0.539   2.349   0.000  0.00  0.00    +0.002 C 
ATOM      7  C   UNL     1      -0.333   1.848   0.000  0.00  0.00    +0.000 C 
ATOM      8  C   UNL     1      -0.333   0.834   0.000  0.00  0.00    +0.004 C 
ATOM      9  C   UNL     1      -1.213   0.322   0.000  0.00  0.00    +0.015 C 
ATOM     10  C   UNL     1      -1.213  -0.692   0.000  0.00  0.00    -0.046 C 
ATOM     11  C   UNL     1      -2.085  -1.193   0.000  0.00  0.00    +0.065 C 
ATOM     12  C   UNL     1      -2.953  -0.692   0.000  0.00  0.00    +0.173 C 
ATOM     13  C   UNL     1      -2.953   0.322   0.000  0.00  0.00    +0.044 C 
ATOM     14  C   UNL     1      -0.333  -1.193   0.000  0.00  0.00    -0.035 C 
ATOM     15  C   UNL     1       0.539  -0.692   0.000  0.00  0.00    +0.025 C 
ATOM     16  C   UNL     1      -1.213   1.201   0.000  0.00  0.00    +0.004 C 
ATOM     17  C   UNL     1      -2.085   0.834   0.000  0.00  0.00    +0.007 C 
ATOM     18  C   UNL     1       0.539   0.322   0.000  0.00  0.00    +0.005 C 
ATOM     19  O   UNL     1       3.312   2.357   0.000  0.00  0.00    -0.349 OA
ATOM     20  C   UNL     1       2.337   2.128   0.000  0.00  0.00    +0.147 C 
ENDROOT
BRANCH   1  21
ATOM     21  C   UNL     1       3.596   0.633   0.000  0.00  0.00    +0.178 C 
ATOM     22  C   UNL     1       3.284  -0.266   0.000  0.00  0.00    +0.075 C 
ATOM     23  O   UNL     1       4.649   0.720   0.000  0.00  0.00    -0.294 OA
ENDBRANCH   1  21
BRANCH  12  24
ATOM     24  O   UNL     1      -3.817  -1.185   0.000  0.00  0.00    -0.452 OA
BRANCH  24  25
ATOM     25  C   UNL     1      -3.817  -2.179   0.000  0.00  0.00    +0.317 C 
ATOM     26  C   UNL     1      -4.649  -2.641   0.000  0.00  0.00    +0.121 C 
ATOM     27  O   UNL     1      -2.972  -2.803   0.000  0.00  0.00    -0.250 OA
ENDBRANCH  24  25
ENDBRANCH  12  24
TORSDOF 3
ENDMDL
MODEL      342
REMARK  Name = 5,7',9',13'-TETRAMETHYL-5'-OXASPIRO[OXANE-2,6'-PENTACYCLO[10.8.0.0^(2,9).0^(4,8).0^(13,18)]ICOSAN]-16'-YL ACETATE
REMARK  2 active torsions:
REMARK  status: ('A' for Active; 'I' for Inactive)
REMARK    1  A    between atoms: C_18  and  O_22
REMARK    2  A    between atoms: O_22  and  C_23
REMARK                            x       y       z     vdW  Elec       q    Type
REMARK                         _______ _______ _______ _____ _____    ______ ____
ROOT
ATOM      1  C   UNL     1      -0.260   1.033   0.000  0.00  0.00    +0.002 C 
ATOM      2  C   UNL     1      -0.235   2.120   0.000  0.00  0.00    +0.000 C 
ATOM      3  C   UNL     1      -1.048   1.502   0.000  0.00  0.00    +0.000 C 
ATOM      4  C   UNL     1      -1.852   1.033   0.000  0.00  0.00    +0.000 C 
ATOM      5  C   UNL     1      -1.852   0.106   0.000  0.00  0.00    +0.000 C 
ATOM      6  C   UNL     1      -1.048  -0.379   0.000  0.00  0.00    +0.000 C 
ATOM      7  C   UNL     1      -1.048  -1.291   0.000  0.00  0.00    +0.000 C 
ATOM      8  C   UNL     1      -1.852  -1.765   0.000  0.00  0.00    +0.000 C 
ATOM      9  C   UNL     1      -2.671  -1.291   0.000  0.00  0.00    +0.004 C 
ATOM     10  C   UNL     1      -3.511  -1.765   0.000  0.00  0.00    +0.044 C 
ATOM     11  C   UNL     1      -4.253  -1.291   0.000  0.00  0.00    +0.169 C 
ATOM     12  C   UNL     1      -4.253  -0.379   0.000  0.00  0.00    +0.044 C 
ATOM     13  C   UNL     1      -3.511   0.106   0.000  0.00  0.00    +0.004 C 
ATOM     14  C   UNL     1      -2.671  -0.379   0.000  0.00  0.00    +0.000 C 
ATOM     15  C   UNL     1      -2.697   0.760   0.000  0.00  0.00    +0.000 C 
ATOM     16  C   UNL     1       0.631   1.306   0.000  0.00  0.00    +0.032 C 
ATOM     17  C   UNL     1       1.275   2.306   0.000  0.00  0.00    +0.054 C 
ATOM     18  C   UNL     1       0.966   3.408   0.000  0.00  0.00    +0.005 C 
ATOM     19  C   UNL     1       2.300   1.899   0.000  0.00  0.00    +0.187 C 
ATOM     20  O   UNL     1       2.326   0.832   0.000  0.00  0.00    -0.337 OA
ATOM     21  C   UNL     1       3.140   2.295   0.000  0.00  0.00    +0.056 C 
ATOM     22  C   UNL     1       4.305   1.883   0.000  0.00  0.00    +0.007 C 
ATOM     23  C   UNL     1       5.021   2.790   0.000  0.00  0.00    +0.030 C 
ATOM     24  C   UNL     1       4.155   2.368   0.000  0.00  0.00    +0.145 C 
ATOM     25  C   UNL     1       5.897   2.393   0.000  0.00  0.00    +0.003 C 
ATOM     26  O   UNL     1       3.006   2.790   0.000  0.00  0.00    -0.334 OA
ATOM     27  C   UNL     1       1.151   0.564   0.000  0.00  0.00    +0.118 C 
ATOM     28  C   UNL     1       0.631  -0.152   0.000  0.00  0.00    +0.030 C 
ATOM     29  C   UNL     1      -0.260   0.106   0.000  0.00  0.00    +0.002 C 
ENDROOT
BRANCH  11  30
ATOM     30  O   UNL     1      -5.067  -1.785   0.000  0.00  0.00    -0.452 OA
BRANCH  30  31
ATOM     31  C   UNL     1      -5.057  -2.790   0.000  0.00  0.00    +0.317 C 
ATOM     32  C   UNL     1      -5.897  -3.259   0.000  0.00  0.00    +0.121 C 
ATOM     33  O   UNL     1      -4.202  -3.408   0.000  0.00  0.00    -0.250 OA
ENDBRANCH  30  31
ENDBRANCH  11  30
TORSDOF 2
ENDMDL
MODEL      343
REMARK  Name = 20'-BROMO-18'-HYDROXY-5,7',9',13'-TETRAMETHYL-19'-OXO-5'-OXASPIRO[OXANE-2,6'-PENTACYCLO[10.8.0.0^(2,9).0^(4,8).0^(13,18)]ICOSAN]-16'-YL ACETATE
REMARK  2 active torsions:
REMARK  status: ('A' for Active; 'I' for Inactive)
REMARK    1  A    between atoms: C_21  and  O_25
REMARK    2  A    between atoms: C_24  and  O_25
REMARK                            x       y       z     vdW  Elec       q    Type
REMARK                         _______ _______ _______ _____ _____    ______ ____
ROOT
ATOM      1  C   UNL     1      -2.644  -1.278   0.000  0.00  0.00    +0.181 C 
ATOM      2  O   UNL     1      -2.644  -2.491   0.000  0.00  0.00    -0.218 OA
ATOM      3  C   UNL     1      -3.475  -1.747   0.000  0.00  0.00    +0.081 C 
ATOM      4  C   UNL     1      -4.210  -1.278   0.000  0.00  0.00    +0.172 C 
ATOM      5  C   UNL     1      -4.210  -0.375   0.000  0.00  0.00    +0.044 C 
ATOM      6  C   UNL     1      -3.475   0.104   0.000  0.00  0.00    +0.006 C 
ATOM      7  C   UNL     1      -1.833  -1.747   0.000  0.00  0.00    +0.188 C 
ATOM      8  O   UNL     1      -1.813  -2.930   0.000  0.00  0.00    -0.293 OA
ATOM      9  C   UNL     1      -1.038  -1.278   0.000  0.00  0.00    +0.117 C 
ATOM     10 BR   UNL     1      -0.171  -1.757   0.000  0.00  0.00    -0.074 Br
ATOM     11  C   UNL     1      -1.038  -0.375   0.000  0.00  0.00    +0.018 C 
ATOM     12  C   UNL     1      -1.833   0.104   0.000  0.00  0.00    +0.004 C 
ATOM     13  C   UNL     1      -1.833   1.022   0.000  0.00  0.00    +0.000 C 
ATOM     14  C   UNL     1      -1.038   1.487   0.000  0.00  0.00    +0.000 C 
ATOM     15  C   UNL     1      -0.258   1.022   0.000  0.00  0.00    +0.003 C 
ATOM     16  C   UNL     1      -0.232   2.099   0.000  0.00  0.00    +0.000 C 
ATOM     17  C   UNL     1       0.625   1.293   0.000  0.00  0.00    +0.032 C 
ATOM     18  C   UNL     1       1.140   0.558   0.000  0.00  0.00    +0.118 C 
ATOM     19  C   UNL     1       0.625  -0.150   0.000  0.00  0.00    +0.030 C 
ATOM     20  O   UNL     1       2.303   0.824   0.000  0.00  0.00    -0.337 OA
ATOM     21  C   UNL     1       2.277   1.879   0.000  0.00  0.00    +0.187 C 
ATOM     22  C   UNL     1       3.108   2.272   0.000  0.00  0.00    +0.056 C 
ATOM     23  C   UNL     1       4.261   1.864   0.000  0.00  0.00    +0.007 C 
ATOM     24  C   UNL     1       4.970   2.761   0.000  0.00  0.00    +0.030 C 
ATOM     25  C   UNL     1       4.113   2.343   0.000  0.00  0.00    +0.145 C 
ATOM     26  C   UNL     1       5.837   2.369   0.000  0.00  0.00    +0.003 C 
ATOM     27  O   UNL     1       2.976   2.761   0.000  0.00  0.00    -0.334 OA
ATOM     28  C   UNL     1       1.262   2.282   0.000  0.00  0.00    +0.054 C 
ATOM     29  C   UNL     1       0.956   3.373   0.000  0.00  0.00    +0.005 C 
ATOM     30  C   UNL     1      -0.258   0.104   0.000  0.00  0.00    +0.004 C 
ATOM     31  C   UNL     1      -2.644  -0.375   0.000  0.00  0.00    +0.033 C 
ATOM     32  C   UNL     1      -2.670   0.752   0.000  0.00  0.00    +0.003 C 
ENDROOT
BRANCH   4  33
ATOM     33  O   UNL     1      -5.016  -1.767   0.000  0.00  0.00    -0.452 OA
BRANCH  33  34
ATOM     34  C   UNL     1      -5.005  -2.761   0.000  0.00  0.00    +0.317 C 
ATOM     35  C   UNL     1      -5.837  -3.225   0.000  0.00  0.00    +0.121 C 
ATOM     36  O   UNL     1      -4.159  -3.373   0.000  0.00  0.00    -0.250 OA
ENDBRANCH  33  34
ENDBRANCH   4  33
TORSDOF 2
ENDMDL
MODEL      344
REMARK  Name = 2-{[4,5-DIHYDROXY-2-({14-HYDROXY-15-[5-(2-HYDROXYPROPAN-2-YL)-2-METHYLOXOLAN-2-YL]-7,7,12,16-TETRAMETHYL-9-[(3,4,5-TRIHYDROXYOXAN-2-YL)OXY]PENTACYCLO[9.7.0.0^(1,3).0^(3,8).0^(12,16)]OCTADECAN-6-YL}OXY )OXAN-3-YL]OXY}OXANE-3,4,5-TRIOL
REMARK  8 active torsions:
REMARK  status: ('A' for Active; 'I' for Inactive)
REMARK    1  A    between atoms: C_7  and  O_16
REMARK    2  A    between atoms: C_9  and  C_10
REMARK    3  A    between atoms: C_13  and  O_16
REMARK    4  A    between atoms: C_14  and  O_32
REMARK    5  A    between atoms: C_15  and  O_27
REMARK    6  A    between atoms: C_17  and  O_27
REMARK    7  A    between atoms: C_28  and  O_32
REMARK    8  A    between atoms: C_35  and  C_39
REMARK                            x       y       z     vdW  Elec       q    Type
REMARK                         _______ _______ _______ _____ _____    ______ ____
ROOT
ATOM      1  C   UNL     1       0.782   2.508   0.000  0.00  0.00    +0.000 C 
ATOM      2  C   UNL     1       0.782   3.270   0.000  0.00  0.00    +0.000 C 
ATOM      3  C   UNL     1       1.460   3.685   0.000  0.00  0.00    +0.000 C 
ATOM      4  C   UNL     1       2.124   3.270   0.000  0.00  0.00    +0.005 C 
ATOM      5  C   UNL     1       2.124   2.508   0.000  0.00  0.00    +0.003 C 
ATOM      6  C   UNL     1       2.124   1.740   0.000  0.00  0.00    +0.000 C 
ATOM      7  C   UNL     1       2.872   2.260   0.000  0.00  0.00    +0.033 C 
ATOM      8  C   UNL     1       3.308   2.889   0.000  0.00  0.00    +0.154 C 
ATOM      9  O   UNL     1       4.138   2.889   0.000  0.00  0.00    -0.223 OA
ATOM     10  C   UNL     1       2.124   4.183   0.000  0.00  0.00    +0.000 C 
ATOM     11  C   UNL     1       2.872   3.505   0.000  0.00  0.00    +0.055 C 
ATOM     12  C   UNL     1       0.083   3.021   0.000  0.00  0.00    +0.000 C 
ATOM     13  C   UNL     1       1.460   2.059   0.000  0.00  0.00    +0.002 C 
ATOM     14  C   UNL     1       1.460   1.311   0.000  0.00  0.00    +0.030 C 
ATOM     15  C   UNL     1       0.782   0.896   0.000  0.00  0.00    +0.118 C 
ATOM     16  C   UNL     1       0.083   1.311   0.000  0.00  0.00    +0.030 C 
ATOM     17  C   UNL     1      -0.630   0.896   0.000  0.00  0.00    +0.027 C 
ATOM     18  C   UNL     1      -1.246   1.311   0.000  0.00  0.00    +0.118 C 
ATOM     19  C   UNL     1      -1.246   2.059   0.000  0.00  0.00    +0.030 C 
ATOM     20  C   UNL     1      -0.630   2.508   0.000  0.00  0.00    +0.003 C 
ATOM     21  C   UNL     1      -0.311   0.232   0.000  0.00  0.00    +0.002 C 
ATOM     22  C   UNL     1      -1.059   0.218   0.000  0.00  0.00    +0.002 C 
ATOM     23  C   UNL     1       0.083   2.059   0.000  0.00  0.00    +0.002 C 
ENDROOT
BRANCH  11  24
ATOM     24  C   UNL     1       3.273   4.370   0.000  0.00  0.00    +0.095 C 
ATOM     25  C   UNL     1       2.623   4.799   0.000  0.00  0.00    +0.030 C 
ATOM     26  C   UNL     1       3.273   5.200   0.000  0.00  0.00    +0.030 C 
ATOM     27  C   UNL     1       4.104   5.464   0.000  0.00  0.00    +0.035 C 
ATOM     28  C   UNL     1       4.616   4.799   0.000  0.00  0.00    +0.143 C 
ATOM     29  O   UNL     1       4.104   4.052   0.000  0.00  0.00    -0.358 OA
BRANCH  28  30
ATOM     30  C   UNL     1       5.696   4.799   0.000  0.00  0.00    +0.151 C 
ATOM     31  C   UNL     1       5.696   5.664   0.000  0.00  0.00    +0.035 C 
ATOM     32  C   UNL     1       5.696   3.899   0.000  0.00  0.00    +0.035 C 
ATOM     33  O   UNL     1       6.644   4.799   0.000  0.00  0.00    -0.223 OA
ENDBRANCH  28  30
ENDBRANCH  11  24
BRANCH  18  34
ATOM     34  O   UNL     1      -2.955   0.481   0.000  0.00  0.00    -0.331 OA
BRANCH  34  35
ATOM     35  C   UNL     1      -2.955  -0.585   0.000  0.00  0.00    +0.266 C 
ATOM     36  O   UNL     1      -3.585   0.315   0.000  0.00  0.00    -0.326 OA
ATOM     37  C   UNL     1      -4.831   0.315   0.000  0.00  0.00    +0.180 C 
ATOM     38  C   UNL     1      -5.516  -0.585   0.000  0.00  0.00    +0.214 C 
ATOM     39  C   UNL     1      -4.831  -1.381   0.000  0.00  0.00    +0.217 C 
ATOM     40  O   UNL     1      -4.831  -0.633   0.000  0.00  0.00    -0.218 OA
ATOM     41  O   UNL     1      -5.516  -1.581   0.000  0.00  0.00    -0.218 OA
ATOM     42  C   UNL     1      -3.585  -1.381   0.000  0.00  0.00    +0.207 C 
BRANCH  42  43
ATOM     43  O   UNL     1      -3.585  -2.356   0.000  0.00  0.00    -0.323 OA
BRANCH  43  44
ATOM     44  C   UNL     1      -3.585  -3.706   0.000  0.00  0.00    +0.270 C 
ATOM     45  O   UNL     1      -4.415  -2.710   0.000  0.00  0.00    -0.326 OA
ATOM     46  C   UNL     1      -5.862  -2.710   0.000  0.00  0.00    +0.180 C 
ATOM     47  C   UNL     1      -6.609  -3.741   0.000  0.00  0.00    +0.214 C 
ATOM     48  C   UNL     1      -5.827  -4.737   0.000  0.00  0.00    +0.220 C 
ATOM     49  O   UNL     1      -5.827  -3.768   0.000  0.00  0.00    -0.217 OA
ATOM     50  O   UNL     1      -6.644  -2.675   0.000  0.00  0.00    -0.218 OA
ATOM     51  C   UNL     1      -4.332  -4.737   0.000  0.00  0.00    +0.241 C 
ATOM     52  O   UNL     1      -4.332  -5.664   0.000  0.00  0.00    -0.215 OA
ENDBRANCH  43  44
ENDBRANCH  42  43
ENDBRANCH  34  35
ENDBRANCH  18  34
BRANCH  15  53
ATOM     53  O   UNL     1       0.782  -0.834   0.000  0.00  0.00    -0.331 OA
BRANCH  53  54
ATOM     54  C   UNL     1       0.782  -2.191   0.000  0.00  0.00    +0.269 C 
ATOM     55  O   UNL     1       0.021  -1.228   0.000  0.00  0.00    -0.326 OA
ATOM     56  C   UNL     1      -1.343  -1.228   0.000  0.00  0.00    +0.180 C 
ATOM     57  C   UNL     1      -2.111  -2.191   0.000  0.00  0.00    +0.214 C 
ATOM     58  C   UNL     1      -1.343  -3.187   0.000  0.00  0.00    +0.220 C 
ATOM     59  O   UNL     1      -1.343  -2.225   0.000  0.00  0.00    -0.217 OA
ATOM     60  O   UNL     1      -2.124  -3.374   0.000  0.00  0.00    -0.218 OA
ATOM     61  C   UNL     1       0.021  -3.187   0.000  0.00  0.00    +0.241 C 
ATOM     62  O   UNL     1       0.021  -4.017   0.000  0.00  0.00    -0.215 OA
ENDBRANCH  53  54
ENDBRANCH  15  53
TORSDOF 8
ENDMDL
MODEL      345
REMARK  Name = 1-{14-HYDROXY-7,11-DIMETHYL-5-OXAPENTACYCLO[8.8.0.0^(2,7).0^(4,6).0^(11,16)]OCTADEC-16-EN-4-YL}ETHAN-1-ONE
REMARK  1 active torsions:
REMARK  status: ('A' for Active; 'I' for Inactive)
REMARK    1  A    between atoms: C_1  and  C_11
REMARK                            x       y       z     vdW  Elec       q    Type
REMARK                         _______ _______ _______ _____ _____    ______ ____
ROOT
ATOM      1  C   UNL     1       2.551   0.506   0.000  0.00  0.00    +0.168 C 
ATOM      2  C   UNL     1       1.964  -0.306   0.000  0.00  0.00    +0.037 C 
ATOM      3  C   UNL     1       1.026   0.003   0.000  0.00  0.00    +0.006 C 
ATOM      4  C   UNL     1       1.026   1.015   0.000  0.00  0.00    +0.028 C 
ATOM      5  C   UNL     1       1.026   2.006   0.000  0.00  0.00    +0.003 C 
ATOM      6  C   UNL     1       0.142   1.494   0.000  0.00  0.00    +0.002 C 
ATOM      7  C   UNL     1      -0.720   1.015   0.000  0.00  0.00    +0.000 C 
ATOM      8  C   UNL     1      -0.720   0.003   0.000  0.00  0.00    +0.004 C 
ATOM      9  C   UNL     1      -1.583  -0.506   0.000  0.00  0.00    +0.015 C 
ATOM     10  C   UNL     1      -1.583  -1.496   0.000  0.00  0.00    -0.047 C 
ATOM     11  C   UNL     1      -2.445  -2.006   0.000  0.00  0.00    +0.055 C 
ATOM     12  C   UNL     1      -3.307  -1.496   0.000  0.00  0.00    +0.156 C 
ATOM     13  C   UNL     1      -3.307  -0.506   0.000  0.00  0.00    +0.034 C 
ATOM     14  O   UNL     1      -4.170  -2.006   0.000  0.00  0.00    -0.223 OA
ATOM     15  C   UNL     1      -0.720  -2.006   0.000  0.00  0.00    -0.035 C 
ATOM     16  C   UNL     1       0.142  -1.496   0.000  0.00  0.00    +0.025 C 
ATOM     17  C   UNL     1      -1.583   0.506   0.000  0.00  0.00    +0.004 C 
ATOM     18  C   UNL     1      -2.445   0.003   0.000  0.00  0.00    +0.006 C 
ATOM     19  C   UNL     1       0.142  -0.506   0.000  0.00  0.00    +0.005 C 
ATOM     20  O   UNL     1       2.986   1.397   0.000  0.00  0.00    -0.349 OA
ATOM     21  C   UNL     1       1.964   1.322   0.000  0.00  0.00    +0.147 C 
ENDROOT
BRANCH   1  22
ATOM     22  C   UNL     1       3.179  -0.259   0.000  0.00  0.00    +0.178 C 
ATOM     23  C   UNL     1       4.170  -0.162   0.000  0.00  0.00    +0.075 C 
ATOM     24  O   UNL     1       2.895  -1.212   0.000  0.00  0.00    -0.294 OA
ENDBRANCH   1  22
TORSDOF 1
ENDMDL
MODEL      346
REMARK  Name = 1-(5-ethyl-6-methylheptan-2-yl)-9a,11a-dimethyl-1H,2H,3H,3aH,3bH,4H,6H,7H,8H,9H,9aH,9bH,10H,11H,11aH-cyclopenta[a]phenanthren-7-yl acetate
REMARK  8 active torsions:
REMARK  status: ('A' for Active; 'I' for Inactive)
REMARK    1  A    between atoms: C_7  and  C_20
REMARK    2  A    between atoms: C_16  and  O_17
REMARK    3  A    between atoms: O_17  and  C_18
REMARK    4  A    between atoms: C_20  and  C_21
REMARK    5  A    between atoms: C_21  and  C_22
REMARK    6  A    between atoms: C_22  and  C_25
REMARK    7  A    between atoms: C_25  and  C_27
REMARK    8  A    between atoms: C_25  and  C_29
REMARK                            x       y       z     vdW  Elec       q    Type
REMARK                         _______ _______ _______ _____ _____    ______ ____
ROOT
ATOM      1  C   UNL     1       0.295   1.001   0.000  0.00  0.00    +0.000 C 
ATOM      2  C   UNL     1       0.295   1.956   0.000  0.00  0.00    +0.000 C 
ATOM      3  C   UNL     1      -0.587   1.484   0.000  0.00  0.00    +0.000 C 
ATOM      4  C   UNL     1      -1.478   1.001   0.000  0.00  0.00    +0.000 C 
ATOM      5  C   UNL     1      -1.478  -0.034   0.000  0.00  0.00    +0.004 C 
ATOM      6  C   UNL     1      -0.587  -0.544   0.000  0.00  0.00    +0.005 C 
ATOM      7  C   UNL     1      -0.587  -1.563   0.000  0.00  0.00    +0.025 C 
ATOM      8  C   UNL     1      -1.478  -2.073   0.000  0.00  0.00    -0.035 C 
ATOM      9  C   UNL     1      -2.344  -1.563   0.000  0.00  0.00    -0.046 C 
ATOM     10  C   UNL     1      -3.225  -2.073   0.000  0.00  0.00    +0.065 C 
ATOM     11  C   UNL     1      -4.090  -1.563   0.000  0.00  0.00    +0.173 C 
ATOM     12  C   UNL     1      -4.090  -0.544   0.000  0.00  0.00    +0.044 C 
ATOM     13  C   UNL     1      -3.225  -0.034   0.000  0.00  0.00    +0.007 C 
ATOM     14  C   UNL     1      -2.344  -0.544   0.000  0.00  0.00    +0.015 C 
ATOM     15  C   UNL     1      -2.344   0.337   0.000  0.00  0.00    +0.004 C 
ATOM     16  C   UNL     1       1.234   1.282   0.000  0.00  0.00    +0.000 C 
ATOM     17  C   UNL     1       1.834   0.502   0.000  0.00  0.00    +0.000 C 
ATOM     18  C   UNL     1       1.261  -0.337   0.000  0.00  0.00    +0.000 C 
ATOM     19  C   UNL     1       0.295  -0.045   0.000  0.00  0.00    +0.000 C 
ENDROOT
BRANCH  16  20
ATOM     20  C   UNL     1       1.526   2.238   0.000  0.00  0.00    +0.000 C 
ATOM     21  C   UNL     1       0.852   2.960   0.000  0.00  0.00    +0.000 C 
BRANCH  20  22
ATOM     22  C   UNL     1       2.498   2.466   0.000  0.00  0.00    +0.000 C 
BRANCH  22  23
ATOM     23  C   UNL     1       3.172   1.738   0.000  0.00  0.00    +0.000 C 
BRANCH  23  24
ATOM     24  C   UNL     1       4.138   1.967   0.000  0.00  0.00    +0.000 C 
BRANCH  24  25
ATOM     25  C   UNL     1       4.828   1.256   0.000  0.00  0.00    +0.000 C 
ATOM     26  C   UNL     1       5.784   1.484   0.000  0.00  0.00    +0.000 C 
ATOM     27  C   UNL     1       4.563   0.300   0.000  0.00  0.00    +0.000 C 
ENDBRANCH  24  25
BRANCH  24  28
ATOM     28  C   UNL     1       4.420   2.912   0.000  0.00  0.00    +0.000 C 
ATOM     29  C   UNL     1       3.745   3.623   0.000  0.00  0.00    +0.000 C 
ENDBRANCH  24  28
ENDBRANCH  23  24
ENDBRANCH  22  23
ENDBRANCH  20  22
ENDBRANCH  16  20
BRANCH  11  30
ATOM     30  O   UNL     1      -4.956  -2.073   0.000  0.00  0.00    -0.452 OA
BRANCH  30  31
ATOM     31  C   UNL     1      -4.956  -3.066   0.000  0.00  0.00    +0.317 C 
ATOM     32  C   UNL     1      -4.127  -3.623   0.000  0.00  0.00    +0.121 C 
ATOM     33  O   UNL     1      -5.784  -3.623   0.000  0.00  0.00    -0.250 OA
ENDBRANCH  30  31
ENDBRANCH  11  30
TORSDOF 8
ENDMDL
MODEL      347
REMARK  Name = 6'-ethoxy-10-hydroxy-6',9a,11a-trimethyl-2,3,3a,3b,4,5,7,9a,9b,10,11,11a-dodecahydrospiro[cyclopenta[a]phenanthrene-1,2'-[1,5]dioxane]-3',7-dione
REMARK  2 active torsions:
REMARK  status: ('A' for Active; 'I' for Inactive)
REMARK    1  A    between atoms: C_9  and  O_26
REMARK    2  A    between atoms: O_26  and  C_30
REMARK                            x       y       z     vdW  Elec       q    Type
REMARK                         _______ _______ _______ _____ _____    ______ ____
ROOT
ATOM      1  C   UNL     1       1.064  -0.189   0.000  0.00  0.00    +0.032 C 
ATOM      2  C   UNL     1       1.049   0.515   0.000  0.00  0.00    +0.003 C 
ATOM      3  C   UNL     1       0.168   0.334   0.000  0.00  0.00    +0.036 C 
ATOM      4  C   UNL     1      -0.712  -0.189   0.000  0.00  0.00    +0.153 C 
ATOM      5  O   UNL     1      -1.592   0.309   0.000  0.00  0.00    -0.223 OA
ATOM      6  C   UNL     1      -0.712  -1.200   0.000  0.00  0.00    +0.038 C 
ATOM      7  C   UNL     1       0.204  -1.698   0.000  0.00  0.00    +0.003 C 
ATOM      8  C   UNL     1       0.204  -2.724   0.000  0.00  0.00    +0.004 C 
ATOM      9  C   UNL     1      -0.712  -3.227   0.000  0.00  0.00    +0.022 C 
ATOM     10  C   UNL     1      -1.582  -2.724   0.000  0.00  0.00    -0.038 C 
ATOM     11  C   UNL     1      -2.462  -3.227   0.000  0.00  0.00    +0.034 C 
ATOM     12  C   UNL     1      -3.357  -2.724   0.000  0.00  0.00    +0.195 C 
ATOM     13  O   UNL     1      -4.237  -3.252   0.000  0.00  0.00    -0.287 OA
ATOM     14  C   UNL     1      -3.357  -1.698   0.000  0.00  0.00    +0.038 C 
ATOM     15  C   UNL     1      -2.462  -1.200   0.000  0.00  0.00    -0.020 C 
ATOM     16  C   UNL     1      -1.582  -1.698   0.000  0.00  0.00    +0.036 C 
ATOM     17  C   UNL     1      -1.582  -0.682   0.000  0.00  0.00    +0.009 C 
ATOM     18  C   UNL     1       1.064  -1.200   0.000  0.00  0.00    +0.003 C 
ATOM     19  C   UNL     1       2.030  -1.501   0.000  0.00  0.00    +0.003 C 
ATOM     20  C   UNL     1       2.608  -0.656   0.000  0.00  0.00    +0.035 C 
ATOM     21  C   UNL     1       2.055   0.138   0.000  0.00  0.00    +0.150 C 
ATOM     22  C   UNL     1       1.677   1.104   0.000  0.00  0.00    +0.205 C 
ATOM     23  O   UNL     1       0.702   1.250   0.000  0.00  0.00    -0.291 OA
ATOM     24  C   UNL     1       2.296   1.863   0.000  0.00  0.00    +0.213 C 
ATOM     25  O   UNL     1       3.322   1.743   0.000  0.00  0.00    -0.304 OA
ATOM     26  C   UNL     1       3.669   0.777   0.000  0.00  0.00    +0.297 C 
ATOM     27  C   UNL     1       3.996  -0.088   0.000  0.00  0.00    +0.096 C 
ATOM     28  O   UNL     1       3.020  -0.018   0.000  0.00  0.00    -0.310 OA
ENDROOT
BRANCH  26  29
ATOM     29  O   UNL     1       4.152   1.526   0.000  0.00  0.00    -0.313 OA
BRANCH  29  30
ATOM     30  C   UNL     1       3.704   2.422   0.000  0.00  0.00    +0.147 C 
ATOM     31  C   UNL     1       4.237   3.252   0.000  0.00  0.00    +0.035 C 
ENDBRANCH  29  30
ENDBRANCH  26  29
TORSDOF 2
ENDMDL
MODEL      348
REMARK  Name = 6-{[9a,11a-dimethyl-1-(6-methylheptan-2-yl)-1H,2H,3H,3aH,3bH,4H,6H,7H,8H,9H,9aH,9bH,10H,11H,11aH-cyclopenta[a]phenanthren-7-yl]oxy}-2-methyloxane-3,4-diol
REMARK  7 active torsions:
REMARK  status: ('A' for Active; 'I' for Inactive)
REMARK    1  A    between atoms: C_7  and  O_22
REMARK    2  A    between atoms: C_9  and  C_24
REMARK    3  A    between atoms: O_22  and  C_23
REMARK    4  A    between atoms: C_24  and  C_32
REMARK    5  A    between atoms: C_31  and  C_32
REMARK    6  A    between atoms: C_31  and  C_34
REMARK    7  A    between atoms: C_34  and  C_35
REMARK                            x       y       z     vdW  Elec       q    Type
REMARK                         _______ _______ _______ _____ _____    ______ ____
ROOT
ATOM      1  C   UNL     1       1.585  -0.294   0.000  0.00  0.00    +0.000 C 
ATOM      2  C   UNL     1       1.576   0.642   0.000  0.00  0.00    +0.000 C 
ATOM      3  C   UNL     1       0.715   0.167   0.000  0.00  0.00    +0.000 C 
ATOM      4  C   UNL     1      -0.085  -0.318   0.000  0.00  0.00    +0.000 C 
ATOM      5  C   UNL     1      -0.085  -1.301   0.000  0.00  0.00    +0.004 C 
ATOM      6  C   UNL     1       0.762  -1.794   0.000  0.00  0.00    +0.005 C 
ATOM      7  C   UNL     1       0.762  -2.730   0.000  0.00  0.00    +0.025 C 
ATOM      8  C   UNL     1      -0.085  -3.229   0.000  0.00  0.00    -0.035 C 
ATOM      9  C   UNL     1      -0.931  -2.730   0.000  0.00  0.00    -0.047 C 
ATOM     10  C   UNL     1      -1.768  -3.238   0.000  0.00  0.00    +0.051 C 
ATOM     11  C   UNL     1      -2.615  -2.730   0.000  0.00  0.00    +0.122 C 
ATOM     12  C   UNL     1      -2.615  -1.794   0.000  0.00  0.00    +0.030 C 
ATOM     13  C   UNL     1      -1.768  -1.301   0.000  0.00  0.00    +0.006 C 
ATOM     14  C   UNL     1      -0.931  -1.794   0.000  0.00  0.00    +0.015 C 
ATOM     15  C   UNL     1      -0.931  -0.811   0.000  0.00  0.00    +0.004 C 
ATOM     16  C   UNL     1       2.502  -0.002   0.000  0.00  0.00    +0.000 C 
ATOM     17  C   UNL     1       3.099  -0.755   0.000  0.00  0.00    +0.000 C 
ATOM     18  C   UNL     1       2.521  -1.583   0.000  0.00  0.00    +0.000 C 
ATOM     19  C   UNL     1       1.585  -1.301   0.000  0.00  0.00    +0.000 C 
ENDROOT
BRANCH  16  20
ATOM     20  C   UNL     1       2.770   0.924   0.000  0.00  0.00    +0.000 C 
ATOM     21  C   UNL     1       2.116   1.639   0.000  0.00  0.00    +0.000 C 
BRANCH  20  22
ATOM     22  C   UNL     1       3.706   1.126   0.000  0.00  0.00    +0.000 C 
BRANCH  22  23
ATOM     23  C   UNL     1       3.988   2.053   0.000  0.00  0.00    +0.000 C 
BRANCH  23  24
ATOM     24  C   UNL     1       4.938   2.269   0.000  0.00  0.00    +0.000 C 
BRANCH  24  25
ATOM     25  C   UNL     1       5.221   3.196   0.000  0.00  0.00    +0.000 C 
ATOM     26  C   UNL     1       4.567   3.915   0.000  0.00  0.00    +0.000 C 
ATOM     27  C   UNL     1       6.171   3.398   0.000  0.00  0.00    +0.000 C 
ENDBRANCH  24  25
ENDBRANCH  23  24
ENDBRANCH  22  23
ENDBRANCH  20  22
ENDBRANCH  16  20
BRANCH  11  28
ATOM     28  O   UNL     1      -3.607  -3.238   0.000  0.00  0.00    -0.333 OA
BRANCH  28  29
ATOM     29  C   UNL     1      -3.607  -2.213   0.000  0.00  0.00    +0.238 C 
ATOM     30  C   UNL     1      -4.238  -3.026   0.000  0.00  0.00    +0.097 C 
ATOM     31  C   UNL     1      -5.512  -3.026   0.000  0.00  0.00    +0.190 C 
ATOM     32  O   UNL     1      -5.512  -3.915   0.000  0.00  0.00    -0.220 OA
ATOM     33  C   UNL     1      -6.171  -2.213   0.000  0.00  0.00    +0.209 C 
ATOM     34  C   UNL     1      -5.512  -1.357   0.000  0.00  0.00    +0.151 C 
ATOM     35  C   UNL     1      -5.512  -2.302   0.000  0.00  0.00    +0.035 C 
ATOM     36  O   UNL     1      -6.171  -1.051   0.000  0.00  0.00    -0.218 OA
ATOM     37  O   UNL     1      -4.238  -1.357   0.000  0.00  0.00    -0.330 OA
ENDBRANCH  28  29
ENDBRANCH  11  28
TORSDOF 7
ENDMDL
MODEL      349
REMARK  Name = methyl (10E)-10-[(2,3-dimethoxyphenyl)methylidene]-5a,5b,8,8,11a-pentamethyl-9-oxo-1-(prop-1-en-2-yl)-icosahydro-1H-cyclopenta[a]chrysene-3a-carboxylate
REMARK  6 active torsions:
REMARK  status: ('A' for Active; 'I' for Inactive)
REMARK    1  A    between atoms: C_4  and  C_15
REMARK    2  A    between atoms: C_13  and  C_16
REMARK    3  A    between atoms: C_14  and  C_26
REMARK    4  A    between atoms: C_15  and  O_34
REMARK    5  A    between atoms: C_24  and  O_37
REMARK    6  A    between atoms: C_29  and  O_38
REMARK                            x       y       z     vdW  Elec       q    Type
REMARK                         _______ _______ _______ _____ _____    ______ ____
ROOT
ATOM      1  C   UNL     1      -0.472  -1.195   0.000  0.00  0.00    +0.005 C 
ATOM      2  C   UNL     1      -0.472  -0.191   0.000  0.00  0.00    +0.000 C 
ATOM      3  C   UNL     1      -1.341  -0.693   0.000  0.00  0.00    +0.029 C 
ATOM      4  C   UNL     1      -2.204  -1.195   0.000  0.00  0.00    +0.013 C 
ATOM      5  C   UNL     1      -3.065  -0.746   0.000  0.00  0.00    +0.002 C 
ATOM      6  C   UNL     1      -2.204  -2.147   0.000  0.00  0.00    +0.168 C 
ATOM      7  C   UNL     1      -1.341  -2.687   0.000  0.00  0.00    +0.055 C 
ATOM      8  C   UNL     1      -2.293  -3.301   0.000  0.00  0.00    +0.008 C 
ATOM      9  C   UNL     1      -0.817  -3.534   0.000  0.00  0.00    +0.008 C 
ATOM     10  O   UNL     1      -3.230  -2.687   0.000  0.00  0.00    -0.292 OA
ATOM     11  C   UNL     1      -0.472  -2.147   0.000  0.00  0.00    +0.007 C 
ATOM     12  C   UNL     1       0.405  -2.649   0.000  0.00  0.00    +0.000 C 
ATOM     13  C   UNL     1       1.267  -2.147   0.000  0.00  0.00    +0.000 C 
ATOM     14  C   UNL     1       1.267  -1.195   0.000  0.00  0.00    +0.000 C 
ATOM     15  C   UNL     1       1.267  -0.296   0.000  0.00  0.00    +0.000 C 
ATOM     16  C   UNL     1       2.114  -0.693   0.000  0.00  0.00    +0.000 C 
ATOM     17  C   UNL     1       2.114   0.348   0.000  0.00  0.00    +0.001 C 
ATOM     18  C   UNL     1       1.237   0.836   0.000  0.00  0.00    +0.000 C 
ATOM     19  C   UNL     1       0.405   0.319   0.000  0.00  0.00    +0.000 C 
ATOM     20  C   UNL     1       2.975   0.858   0.000  0.00  0.00    +0.014 C 
ATOM     21  C   UNL     1       3.215   1.862   0.000  0.00  0.00    +0.019 C 
ATOM     22  C   UNL     1       4.205   1.952   0.000  0.00  0.00    +0.005 C 
ATOM     23  C   UNL     1       4.617   1.038   0.000  0.00  0.00    +0.011 C 
ATOM     24  C   UNL     1       3.860   0.348   0.000  0.00  0.00    +0.090 C 
ATOM     25  C   UNL     1       3.860  -0.656   0.000  0.00  0.00    +0.011 C 
ATOM     26  C   UNL     1       2.114  -1.645   0.000  0.00  0.00    +0.000 C 
ATOM     27  C   UNL     1       2.975  -1.143   0.000  0.00  0.00    +0.001 C 
ATOM     28  C   UNL     1       0.405  -0.693   0.000  0.00  0.00    +0.000 C 
ENDROOT
BRANCH   5  29
ATOM     29  C   UNL     1      -3.065   0.244   0.000  0.00  0.00    +0.037 A 
ATOM     30  C   UNL     1      -2.204   0.746   0.000  0.00  0.00    +0.003 A 
ATOM     31  C   UNL     1      -2.204   1.758   0.000  0.00  0.00    +0.003 A 
ATOM     32  C   UNL     1      -3.028   2.237   0.000  0.00  0.00    +0.040 A 
ATOM     33  C   UNL     1      -3.912   1.735   0.000  0.00  0.00    +0.172 A 
ATOM     34  C   UNL     1      -3.912   0.731   0.000  0.00  0.00    +0.172 A 
BRANCH  33  35
ATOM     35  O   UNL     1      -4.774   2.222   0.000  0.00  0.00    -0.468 OA
ATOM     36  C   UNL     1      -5.621   1.720   0.000  0.00  0.00    +0.253 C 
ENDBRANCH  33  35
BRANCH  34  37
ATOM     37  O   UNL     1      -4.759   0.206   0.000  0.00  0.00    -0.468 OA
ATOM     38  C   UNL     1      -4.737  -0.783   0.000  0.00  0.00    +0.253 C 
ENDBRANCH  34  37
ENDBRANCH   5  29
BRANCH  21  39
ATOM     39  C   UNL     1       2.563   2.597   0.000  0.00  0.00    -0.044 C 
ATOM     40  C   UNL     1       1.596   2.439   0.000  0.00  0.00    +0.026 C 
ATOM     41  C   UNL     1       2.908   3.534   0.000  0.00  0.00    -0.009 C 
ENDBRANCH  21  39
BRANCH  24  42
ATOM     42  C   UNL     1       4.759  -0.191   0.000  0.00  0.00    +0.316 C 
ATOM     43  O   UNL     1       4.774  -1.180   0.000  0.00  0.00    -0.250 OA
BRANCH  42  44
ATOM     44  O   UNL     1       5.621   0.296   0.000  0.00  0.00    -0.444 OA
ATOM     45  C   UNL     1       5.621   1.285   0.000  0.00  0.00    +0.256 C 
ENDBRANCH  42  44
ENDBRANCH  24  42
TORSDOF 6
ENDMDL
MODEL      350
REMARK  Name = tert-butyl 2-{[5a,5b,8,8,11a-pentamethyl-9-oxo-1-(prop-1-en-2-yl)-icosahydro-1H-cyclopenta[a]chrysen-3a-yl]formamido}-3-methylpentanoate
REMARK  8 active torsions:
REMARK  status: ('A' for Active; 'I' for Inactive)
REMARK    1  A    between atoms: C_3  and  C_8
REMARK    2  A    between atoms: N_10  and  C_14
REMARK    3  A    between atoms: C_12  and  C_14
REMARK    4  A    between atoms: C_12  and  O_24
REMARK    5  A    between atoms: C_13  and  C_26
REMARK    6  A    between atoms: C_14  and  C_33
REMARK    7  A    between atoms: O_24  and  C_30
REMARK    8  A    between atoms: C_33  and  C_43
REMARK                            x       y       z     vdW  Elec       q    Type
REMARK                         _______ _______ _______ _____ _____    ______ ____
ROOT
ATOM      1  C   UNL     1      -0.861  -0.692   0.000  0.00  0.00    +0.000 C 
ATOM      2  C   UNL     1      -0.861  -1.643   0.000  0.00  0.00    +0.000 C 
ATOM      3  C   UNL     1       0.000  -1.141   0.000  0.00  0.00    +0.000 C 
ATOM      4  C   UNL     1       0.883  -0.655   0.000  0.00  0.00    +0.009 C 
ATOM      5  C   UNL     1       0.883   0.348   0.000  0.00  0.00    +0.071 C 
ATOM      6  C   UNL     1       0.000   0.857   0.000  0.00  0.00    +0.012 C 
ATOM      7  C   UNL     1       0.240   1.860   0.000  0.00  0.00    +0.019 C 
ATOM      8  C   UNL     1       1.227   1.950   0.000  0.00  0.00    +0.005 C 
ATOM      9  C   UNL     1       1.639   1.037   0.000  0.00  0.00    +0.009 C 
ATOM     10  C   UNL     1      -0.861   0.348   0.000  0.00  0.00    +0.001 C 
ATOM     11  C   UNL     1      -1.736   0.834   0.000  0.00  0.00    +0.000 C 
ATOM     12  C   UNL     1      -2.567   0.318   0.000  0.00  0.00    +0.000 C 
ATOM     13  C   UNL     1      -2.567  -0.692   0.000  0.00  0.00    +0.000 C 
ATOM     14  C   UNL     1      -3.443  -1.194   0.000  0.00  0.00    +0.001 C 
ATOM     15  C   UNL     1      -3.443  -2.144   0.000  0.00  0.00    +0.007 C 
ATOM     16  C   UNL     1      -4.311  -2.683   0.000  0.00  0.00    +0.052 C 
ATOM     17  C   UNL     1      -5.262  -3.297   0.000  0.00  0.00    +0.007 C 
ATOM     18  C   UNL     1      -3.787  -3.529   0.000  0.00  0.00    +0.007 C 
ATOM     19  C   UNL     1      -5.172  -2.144   0.000  0.00  0.00    +0.150 C 
ATOM     20  C   UNL     1      -5.172  -1.194   0.000  0.00  0.00    +0.064 C 
ATOM     21  O   UNL     1      -6.197  -2.683   0.000  0.00  0.00    -0.296 OA
ATOM     22  C   UNL     1      -2.567  -2.646   0.000  0.00  0.00    +0.000 C 
ATOM     23  C   UNL     1      -1.707  -2.144   0.000  0.00  0.00    +0.000 C 
ATOM     24  C   UNL     1      -3.443  -0.191   0.000  0.00  0.00    +0.000 C 
ATOM     25  C   UNL     1      -4.311  -0.692   0.000  0.00  0.00    +0.008 C 
ATOM     26  C   UNL     1      -1.707  -1.194   0.000  0.00  0.00    +0.000 C 
ATOM     27  C   UNL     1      -1.707  -0.295   0.000  0.00  0.00    +0.000 C 
ENDROOT
BRANCH   7  28
ATOM     28  C   UNL     1      -0.411   2.593   0.000  0.00  0.00    -0.044 C 
ATOM     29  C   UNL     1      -1.377   2.436   0.000  0.00  0.00    +0.026 C 
ATOM     30  C   UNL     1      -0.067   3.529   0.000  0.00  0.00    -0.009 C 
ENDBRANCH   7  28
BRANCH   5  31
ATOM     31  C   UNL     1       1.781  -0.191   0.000  0.00  0.00    +0.241 C 
ATOM     32  O   UNL     1       1.796  -1.179   0.000  0.00  0.00    -0.273 OA
ATOM     33  N   UNL     1       2.642   0.295   0.000  0.00  0.00    -0.196 NA
BRANCH  33  34
ATOM     34  C   UNL     1       3.473  -0.221   0.000  0.00  0.00    +0.193 C 
BRANCH  34  35
ATOM     35  C   UNL     1       3.413  -1.209   0.000  0.00  0.00    +0.031 C 
ATOM     36  C   UNL     1       4.244  -1.748   0.000  0.00  0.00    +0.002 C 
BRANCH  35  37
ATOM     37  C   UNL     1       2.537  -1.658   0.000  0.00  0.00    +0.002 C 
ATOM     38  C   UNL     1       2.500  -2.646   0.000  0.00  0.00    +0.000 C 
ENDBRANCH  35  37
ENDBRANCH  34  35
BRANCH  34  39
ATOM     39  C   UNL     1       4.348   0.243   0.000  0.00  0.00    +0.337 C 
ATOM     40  O   UNL     1       5.209  -0.295   0.000  0.00  0.00    -0.248 OA
BRANCH  39  41
ATOM     41  O   UNL     1       4.423   1.231   0.000  0.00  0.00    -0.455 OA
BRANCH  41  42
ATOM     42  C   UNL     1       5.322   1.665   0.000  0.00  0.00    +0.136 C 
ATOM     43  C   UNL     1       5.748   0.730   0.000  0.00  0.00    +0.044 C 
ATOM     44  C   UNL     1       4.872   2.541   0.000  0.00  0.00    +0.044 C 
ATOM     45  C   UNL     1       6.197   2.114   0.000  0.00  0.00    +0.044 C 
ENDBRANCH  41  42
ENDBRANCH  39  41
ENDBRANCH  34  39
ENDBRANCH  33  34
ENDBRANCH   5  31
TORSDOF 8
ENDMDL
MODEL      351
REMARK  Name = 4,5,9,9,13,20,20-HEPTAMETHYL-24-OXAHEXACYCLO[17.3.2.0^(1,18).0^(4,17).0^(5,14).0^(8,13)]TETRACOSAN-10-ONE
REMARK  0 active torsions:
REMARK  status: ('A' for Active; 'I' for Inactive)
REMARK                            x       y       z     vdW  Elec       q    Type
REMARK                         _______ _______ _______ _____ _____    ______ ____
ROOT
ATOM      1  C   UNL     1       1.164  -0.583   0.000  0.00  0.00    +0.000 C 
ATOM      2  C   UNL     1       1.164  -1.430   0.000  0.00  0.00    +0.000 C 
ATOM      3  C   UNL     1       2.033  -1.063   0.000  0.00  0.00    +0.000 C 
ATOM      4  C   UNL     1       2.894  -0.561   0.000  0.00  0.00    +0.002 C 
ATOM      5  C   UNL     1       2.894   0.426   0.000  0.00  0.00    +0.030 C 
ATOM      6  C   UNL     1       2.033   0.928   0.000  0.00  0.00    +0.030 C 
ATOM      7  C   UNL     1       2.042   1.902   0.000  0.00  0.00    +0.115 C 
ATOM      8  C   UNL     1       2.881   2.396   0.000  0.00  0.00    +0.025 C 
ATOM      9  C   UNL     1       3.741   1.911   0.000  0.00  0.00    +0.002 C 
ATOM     10  C   UNL     1       3.457   3.033   0.000  0.00  0.00    +0.002 C 
ATOM     11  C   UNL     1       2.085   2.920   0.000  0.00  0.00    +0.002 C 
ATOM     12  O   UNL     1       3.208   1.378   0.000  0.00  0.00    -0.356 OA
ATOM     13  C   UNL     1       3.741   0.928   0.000  0.00  0.00    +0.003 C 
ATOM     14  C   UNL     1       4.047   0.151   0.000  0.00  0.00    +0.142 C 
ATOM     15  C   UNL     1       1.164   0.435   0.000  0.00  0.00    +0.002 C 
ATOM     16  C   UNL     1       0.282   0.937   0.000  0.00  0.00    +0.000 C 
ATOM     17  C   UNL     1      -0.579   0.435   0.000  0.00  0.00    +0.000 C 
ATOM     18  C   UNL     1      -0.579  -0.561   0.000  0.00  0.00    +0.000 C 
ATOM     19  C   UNL     1      -1.448  -1.085   0.000  0.00  0.00    +0.001 C 
ATOM     20  C   UNL     1      -1.448  -2.081   0.000  0.00  0.00    +0.007 C 
ATOM     21  C   UNL     1      -2.317  -2.583   0.000  0.00  0.00    +0.052 C 
ATOM     22  C   UNL     1      -1.592  -3.003   0.000  0.00  0.00    +0.007 C 
ATOM     23  C   UNL     1      -3.042  -3.033   0.000  0.00  0.00    +0.007 C 
ATOM     24  C   UNL     1      -3.199  -2.081   0.000  0.00  0.00    +0.150 C 
ATOM     25  C   UNL     1      -3.199  -1.085   0.000  0.00  0.00    +0.064 C 
ATOM     26  O   UNL     1      -4.047  -2.583   0.000  0.00  0.00    -0.296 OA
ATOM     27  C   UNL     1      -0.579  -2.583   0.000  0.00  0.00    +0.000 C 
ATOM     28  C   UNL     1       0.282  -2.081   0.000  0.00  0.00    +0.000 C 
ATOM     29  C   UNL     1      -1.448  -0.203   0.000  0.00  0.00    +0.000 C 
ATOM     30  C   UNL     1      -2.317  -0.561   0.000  0.00  0.00    +0.008 C 
ATOM     31  C   UNL     1       0.282  -1.085   0.000  0.00  0.00    +0.000 C 
ATOM     32  C   UNL     1       0.303  -0.238   0.000  0.00  0.00    +0.000 C 
ENDROOT
TORSDOF 0
ENDMDL
MODEL      352
REMARK  Name = [9-(formyloxy)-5a,5b,8,8,11a-pentamethyl-1-(prop-1-en-2-yl)-icosahydro-1H-cyclopenta[a]chrysen-3a-yl]methyl formate
REMARK  6 active torsions:
REMARK  status: ('A' for Active; 'I' for Inactive)
REMARK    1  A    between atoms: C_9  and  C_17
REMARK    2  A    between atoms: C_10  and  C_33
REMARK    3  A    between atoms: C_19  and  O_32
REMARK    4  A    between atoms: C_22  and  O_29
REMARK    5  A    between atoms: O_29  and  C_33
REMARK    6  A    between atoms: O_32  and  C_35
REMARK                            x       y       z     vdW  Elec       q    Type
REMARK                         _______ _______ _______ _____ _____    ______ ____
ROOT
ATOM      1  C   UNL     1       1.727  -0.839   0.000  0.00  0.00    +0.000 C 
ATOM      2  C   UNL     1       0.830  -1.348   0.000  0.00  0.00    +0.000 C 
ATOM      3  C   UNL     1       0.845  -0.481   0.000  0.00  0.00    +0.000 C 
ATOM      4  C   UNL     1       0.830  -2.366   0.000  0.00  0.00    +0.000 C 
ATOM      5  C   UNL     1      -0.047  -2.875   0.000  0.00  0.00    +0.000 C 
ATOM      6  C   UNL     1      -0.939  -2.366   0.000  0.00  0.00    +0.003 C 
ATOM      7  C   UNL     1      -0.939  -1.348   0.000  0.00  0.00    +0.000 C 
ATOM      8  C   UNL     1      -0.939  -0.446   0.000  0.00  0.00    +0.000 C 
ATOM      9  C   UNL     1      -1.821  -0.819   0.000  0.00  0.00    +0.004 C 
ATOM     10  C   UNL     1      -2.724  -1.348   0.000  0.00  0.00    +0.044 C 
ATOM     11  C   UNL     1      -2.724  -2.366   0.000  0.00  0.00    +0.168 C 
ATOM     12  C   UNL     1      -1.821  -2.875   0.000  0.00  0.00    +0.037 C 
ATOM     13  C   UNL     1      -1.090  -3.304   0.000  0.00  0.00    +0.004 C 
ATOM     14  C   UNL     1      -2.562  -3.339   0.000  0.00  0.00    +0.004 C 
ATOM     15  C   UNL     1      -0.047  -0.819   0.000  0.00  0.00    +0.000 C 
ATOM     16  C   UNL     1      -0.047   0.204   0.000  0.00  0.00    +0.000 C 
ATOM     17  C   UNL     1       0.830   0.713   0.000  0.00  0.00    +0.000 C 
ATOM     18  C   UNL     1       1.727  -1.701   0.000  0.00  0.00    +0.000 C 
ATOM     19  C   UNL     1       2.609  -1.333   0.000  0.00  0.00    +0.000 C 
ATOM     20  C   UNL     1       3.491  -0.819   0.000  0.00  0.00    +0.004 C 
ATOM     21  C   UNL     1       3.491   0.189   0.000  0.00  0.00    +0.041 C 
ATOM     22  C   UNL     1       2.609   0.703   0.000  0.00  0.00    +0.007 C 
ATOM     23  C   UNL     1       2.781   1.696   0.000  0.00  0.00    +0.018 C 
ATOM     24  C   UNL     1       3.834   1.822   0.000  0.00  0.00    +0.004 C 
ATOM     25  C   UNL     1       4.262   0.890   0.000  0.00  0.00    +0.004 C 
ATOM     26  C   UNL     1       1.727   0.204   0.000  0.00  0.00    +0.000 C 
ENDROOT
BRANCH  23  27
ATOM     27  C   UNL     1       2.080   2.387   0.000  0.00  0.00    -0.044 C 
ATOM     28  C   UNL     1       1.127   2.135   0.000  0.00  0.00    +0.026 C 
ATOM     29  C   UNL     1       2.332   3.339   0.000  0.00  0.00    -0.009 C 
ENDBRANCH  23  27
BRANCH  11  30
ATOM     30  O   UNL     1      -3.585  -2.875   0.000  0.00  0.00    -0.455 OA
BRANCH  30  31
ATOM     31  C   UNL     1      -4.452  -2.376   0.000  0.00  0.00    +0.446 C 
ATOM     32  O   UNL     1      -4.454  -1.378   0.000  0.00  0.00    -0.255 OA
ENDBRANCH  30  31
ENDBRANCH  11  30
BRANCH  21  33
ATOM     33  C   UNL     1       4.454  -0.340   0.000  0.00  0.00    +0.209 C 
BRANCH  33  34
ATOM     34  O   UNL     1       4.454  -1.313   0.000  0.00  0.00    -0.441 OA
BRANCH  34  35
ATOM     35  C   UNL     1       5.316  -1.802   0.000  0.00  0.00    +0.418 C 
ATOM     36  O   UNL     1       5.316  -2.795   0.000  0.00  0.00    -0.238 OA
ENDBRANCH  34  35
ENDBRANCH  33  34
ENDBRANCH  21  33
TORSDOF 6
ENDMDL
MODEL      353
REMARK  Name = methyl (10E)-10-[(carbamoylamino)methylidene]-5a,5b,8,8,11a-pentamethyl-9-oxo-1-(prop-1-en-2-yl)-icosahydro-1H-cyclopenta[a]chrysene-3a-carboxylate
REMARK  4 active torsions:
REMARK  status: ('A' for Active; 'I' for Inactive)
REMARK    1  A    between atoms: C_4  and  C_14
REMARK    2  A    between atoms: C_13  and  C_25
REMARK    3  A    between atoms: C_14  and  O_35
REMARK    4  A    between atoms: C_15  and  N_26
REMARK                            x       y       z     vdW  Elec       q    Type
REMARK                         _______ _______ _______ _____ _____    ______ ____
ROOT
ATOM      1  C   UNL     1      -0.952  -1.347   0.000  0.00  0.00    +0.005 C 
ATOM      2  C   UNL     1      -0.952  -0.450   0.000  0.00  0.00    +0.000 C 
ATOM      3  C   UNL     1      -1.844  -0.825   0.000  0.00  0.00    +0.031 C 
ATOM      4  C   UNL     1      -2.740  -1.347   0.000  0.00  0.00    +0.029 C 
ATOM      5  C   UNL     1      -3.618  -0.887   0.000  0.00  0.00    +0.089 C 
ATOM      6  C   UNL     1      -2.740  -2.363   0.000  0.00  0.00    +0.170 C 
ATOM      7  C   UNL     1      -1.844  -2.876   0.000  0.00  0.00    +0.055 C 
ATOM      8  C   UNL     1      -1.103  -3.304   0.000  0.00  0.00    +0.008 C 
ATOM      9  C   UNL     1      -2.579  -3.339   0.000  0.00  0.00    +0.008 C 
ATOM     10  O   UNL     1      -3.605  -2.876   0.000  0.00  0.00    -0.292 OA
ATOM     11  C   UNL     1      -0.952  -2.363   0.000  0.00  0.00    +0.007 C 
ATOM     12  C   UNL     1      -0.065  -2.876   0.000  0.00  0.00    +0.000 C 
ATOM     13  C   UNL     1       0.814  -2.363   0.000  0.00  0.00    +0.000 C 
ATOM     14  C   UNL     1       0.814  -1.347   0.000  0.00  0.00    +0.000 C 
ATOM     15  C   UNL     1       0.823  -0.481   0.000  0.00  0.00    +0.000 C 
ATOM     16  C   UNL     1       1.710  -0.843   0.000  0.00  0.00    +0.000 C 
ATOM     17  C   UNL     1       1.710   0.205   0.000  0.00  0.00    +0.001 C 
ATOM     18  C   UNL     1       0.814   0.718   0.000  0.00  0.00    +0.000 C 
ATOM     19  C   UNL     1      -0.065   0.205   0.000  0.00  0.00    +0.000 C 
ATOM     20  C   UNL     1       2.588   0.709   0.000  0.00  0.00    +0.014 C 
ATOM     21  C   UNL     1       2.762   1.690   0.000  0.00  0.00    +0.019 C 
ATOM     22  C   UNL     1       3.819   1.833   0.000  0.00  0.00    +0.005 C 
ATOM     23  C   UNL     1       4.247   0.887   0.000  0.00  0.00    +0.011 C 
ATOM     24  C   UNL     1       3.475   0.192   0.000  0.00  0.00    +0.090 C 
ATOM     25  C   UNL     1       3.475  -0.825   0.000  0.00  0.00    +0.011 C 
ATOM     26  C   UNL     1       1.710  -1.699   0.000  0.00  0.00    +0.000 C 
ATOM     27  C   UNL     1       2.588  -1.338   0.000  0.00  0.00    +0.001 C 
ATOM     28  C   UNL     1      -0.065  -0.825   0.000  0.00  0.00    +0.000 C 
ENDROOT
BRANCH   5  29
ATOM     29  N   UNL     1      -3.618   0.098   0.000  0.00  0.00    -0.159 NA
ATOM     30  C   UNL     1      -4.519   0.557   0.000  0.00  0.00    +0.363 C 
ATOM     31  N   UNL     1      -4.505   1.574   0.000  0.00  0.00    -0.068 NA
ATOM     32  O   UNL     1      -5.339   0.013   0.000  0.00  0.00    -0.247 OA
ENDBRANCH   5  29
BRANCH  21  33
ATOM     33  C   UNL     1       2.067   2.385   0.000  0.00  0.00    -0.044 C 
ATOM     34  C   UNL     1       1.112   2.140   0.000  0.00  0.00    +0.026 C 
ATOM     35  C   UNL     1       2.312   3.339   0.000  0.00  0.00    -0.009 C 
ENDBRANCH  21  33
BRANCH  24  36
ATOM     36  C   UNL     1       4.439  -0.343   0.000  0.00  0.00    +0.316 C 
ATOM     37  O   UNL     1       5.339   0.076   0.000  0.00  0.00    -0.250 OA
BRANCH  36  38
ATOM     38  O   UNL     1       4.439  -1.315   0.000  0.00  0.00    -0.444 OA
ATOM     39  C   UNL     1       5.295  -1.806   0.000  0.00  0.00    +0.256 C 
ENDBRANCH  36  38
ENDBRANCH  24  36
TORSDOF 4
ENDMDL
MODEL      354
REMARK  Name = 4,5,9,9,13,20,20-HEPTAMETHYL-24-OXAHEXACYCLO[17.3.2.0^(1,18).0^(4,17).0^(5,14).0^(8,13)]TETRACOSAN-10-OL
REMARK  0 active torsions:
REMARK  status: ('A' for Active; 'I' for Inactive)
REMARK                            x       y       z     vdW  Elec       q    Type
REMARK                         _______ _______ _______ _____ _____    ______ ____
ROOT
ATOM      1  C   UNL     1       1.164  -0.583   0.000  0.00  0.00    +0.000 C 
ATOM      2  C   UNL     1       1.164  -1.430   0.000  0.00  0.00    +0.000 C 
ATOM      3  C   UNL     1       2.033  -1.063   0.000  0.00  0.00    +0.000 C 
ATOM      4  C   UNL     1       2.894  -0.561   0.000  0.00  0.00    +0.002 C 
ATOM      5  C   UNL     1       2.894   0.426   0.000  0.00  0.00    +0.030 C 
ATOM      6  C   UNL     1       2.033   0.928   0.000  0.00  0.00    +0.030 C 
ATOM      7  C   UNL     1       2.042   1.902   0.000  0.00  0.00    +0.115 C 
ATOM      8  C   UNL     1       2.881   2.396   0.000  0.00  0.00    +0.025 C 
ATOM      9  C   UNL     1       3.741   1.911   0.000  0.00  0.00    +0.002 C 
ATOM     10  C   UNL     1       3.457   3.033   0.000  0.00  0.00    +0.002 C 
ATOM     11  C   UNL     1       2.085   2.920   0.000  0.00  0.00    +0.002 C 
ATOM     12  O   UNL     1       3.208   1.378   0.000  0.00  0.00    -0.356 OA
ATOM     13  C   UNL     1       3.741   0.928   0.000  0.00  0.00    +0.003 C 
ATOM     14  C   UNL     1       4.047   0.151   0.000  0.00  0.00    +0.142 C 
ATOM     15  C   UNL     1       1.164   0.435   0.000  0.00  0.00    +0.002 C 
ATOM     16  C   UNL     1       0.282   0.937   0.000  0.00  0.00    +0.000 C 
ATOM     17  C   UNL     1      -0.579   0.435   0.000  0.00  0.00    +0.000 C 
ATOM     18  C   UNL     1      -0.579  -0.561   0.000  0.00  0.00    +0.000 C 
ATOM     19  C   UNL     1      -1.448  -1.085   0.000  0.00  0.00    +0.000 C 
ATOM     20  C   UNL     1      -1.448  -2.081   0.000  0.00  0.00    +0.002 C 
ATOM     21  C   UNL     1      -2.317  -2.583   0.000  0.00  0.00    +0.028 C 
ATOM     22  C   UNL     1      -1.592  -3.003   0.000  0.00  0.00    +0.003 C 
ATOM     23  C   UNL     1      -3.042  -3.033   0.000  0.00  0.00    +0.003 C 
ATOM     24  C   UNL     1      -3.199  -2.081   0.000  0.00  0.00    +0.152 C 
ATOM     25  C   UNL     1      -3.199  -1.085   0.000  0.00  0.00    +0.033 C 
ATOM     26  O   UNL     1      -4.047  -2.583   0.000  0.00  0.00    -0.223 OA
ATOM     27  C   UNL     1      -0.579  -2.583   0.000  0.00  0.00    +0.000 C 
ATOM     28  C   UNL     1       0.282  -2.081   0.000  0.00  0.00    +0.000 C 
ATOM     29  C   UNL     1      -1.448  -0.203   0.000  0.00  0.00    +0.000 C 
ATOM     30  C   UNL     1      -2.317  -0.561   0.000  0.00  0.00    +0.003 C 
ATOM     31  C   UNL     1       0.282  -1.085   0.000  0.00  0.00    +0.000 C 
ATOM     32  C   UNL     1       0.303  -0.238   0.000  0.00  0.00    +0.000 C 
ENDROOT
TORSDOF 0
ENDMDL
MODEL      355
REMARK  Name = N-[(10E)-4,5,9,9,13,20,20-HEPTAMETHYL-24-OXAHEXACYCLO[17.3.2.0^(1,18).0^(4,17).0^(5,14).0^(8,13)]TETRACOSAN-10-YLIDENE]HYDROXYLAMINE
REMARK  0 active torsions:
REMARK  status: ('A' for Active; 'I' for Inactive)
REMARK                            x       y       z     vdW  Elec       q    Type
REMARK                         _______ _______ _______ _____ _____    ______ ____
ROOT
ATOM      1  C   UNL     1       1.633  -0.423   0.000  0.00  0.00    +0.000 C 
ATOM      2  C   UNL     1       1.633  -1.337   0.000  0.00  0.00    +0.000 C 
ATOM      3  C   UNL     1       2.484  -0.916   0.000  0.00  0.00    +0.000 C 
ATOM      4  C   UNL     1       3.356  -0.423   0.000  0.00  0.00    +0.002 C 
ATOM      5  C   UNL     1       3.356   0.578   0.000  0.00  0.00    +0.030 C 
ATOM      6  C   UNL     1       2.484   1.058   0.000  0.00  0.00    +0.030 C 
ATOM      7  C   UNL     1       2.493   2.017   0.000  0.00  0.00    +0.115 C 
ATOM      8  C   UNL     1       3.327   2.518   0.000  0.00  0.00    +0.025 C 
ATOM      9  C   UNL     1       4.178   2.038   0.000  0.00  0.00    +0.002 C 
ATOM     10  C   UNL     1       4.095   3.018   0.000  0.00  0.00    +0.002 C 
ATOM     11  C   UNL     1       2.376   3.018   0.000  0.00  0.00    +0.002 C 
ATOM     12  O   UNL     1       3.736   1.400   0.000  0.00  0.00    -0.356 OA
ATOM     13  C   UNL     1       4.166   1.007   0.000  0.00  0.00    +0.003 C 
ATOM     14  C   UNL     1       4.345   0.148   0.000  0.00  0.00    +0.142 C 
ATOM     15  C   UNL     1       1.633   0.578   0.000  0.00  0.00    +0.002 C 
ATOM     16  C   UNL     1       0.774   1.078   0.000  0.00  0.00    +0.000 C 
ATOM     17  C   UNL     1      -0.090   0.578   0.000  0.00  0.00    +0.000 C 
ATOM     18  C   UNL     1      -0.090  -0.423   0.000  0.00  0.00    +0.000 C 
ATOM     19  C   UNL     1      -0.941  -0.916   0.000  0.00  0.00    +0.001 C 
ATOM     20  C   UNL     1      -0.941  -1.925   0.000  0.00  0.00    +0.005 C 
ATOM     21  C   UNL     1      -1.813  -2.418   0.000  0.00  0.00    +0.035 C 
ATOM     22  C   UNL     1      -1.162  -3.018   0.000  0.00  0.00    +0.006 C 
ATOM     23  C   UNL     1      -2.463  -3.018   0.000  0.00  0.00    +0.006 C 
ATOM     24  C   UNL     1      -2.672  -1.925   0.000  0.00  0.00    +0.079 C 
ATOM     25  C   UNL     1      -2.672  -0.916   0.000  0.00  0.00    +0.045 C 
ATOM     26  N   UNL     1      -3.502  -2.426   0.000  0.00  0.00    -0.038 NA
ATOM     27  O   UNL     1      -4.345  -1.954   0.000  0.00  0.00    -0.144 OA
ATOM     28  C   UNL     1      -0.090  -2.418   0.000  0.00  0.00    +0.000 C 
ATOM     29  C   UNL     1       0.782  -1.925   0.000  0.00  0.00    +0.000 C 
ATOM     30  C   UNL     1      -0.941  -0.052   0.000  0.00  0.00    +0.000 C 
ATOM     31  C   UNL     1      -1.813  -0.423   0.000  0.00  0.00    +0.006 C 
ATOM     32  C   UNL     1       0.791  -0.916   0.000  0.00  0.00    +0.000 C 
ATOM     33  C   UNL     1       0.782  -0.023   0.000  0.00  0.00    +0.000 C 
ENDROOT
TORSDOF 0
ENDMDL
MODEL      356
REMARK  Name = 4-({4,5,9,9,13,20,20-HEPTAMETHYL-24-OXAHEXACYCLO[17.3.2.0^(1,18).0^(4,17).0^(5,14).0^(8,13)]TETRACOSAN-10-YL}OXY)-4-OXOBUTANOIC ACID
REMARK  5 active torsions:
REMARK  status: ('A' for Active; 'I' for Inactive)
REMARK    1  A    between atoms: C_12  and  O_20
REMARK    2  A    between atoms: O_20  and  C_21
REMARK    3  A    between atoms: C_21  and  C_32
REMARK    4  A    between atoms: C_23  and  C_34
REMARK    5  A    between atoms: C_32  and  C_34
REMARK                            x       y       z     vdW  Elec       q    Type
REMARK                         _______ _______ _______ _____ _____    ______ ____
ROOT
ATOM      1  C   UNL     1       2.894  -0.499   0.000  0.00  0.00    +0.000 C 
ATOM      2  C   UNL     1       2.894  -1.409   0.000  0.00  0.00    +0.000 C 
ATOM      3  C   UNL     1       3.736  -0.991   0.000  0.00  0.00    +0.000 C 
ATOM      4  C   UNL     1       4.614  -0.499   0.000  0.00  0.00    +0.002 C 
ATOM      5  C   UNL     1       4.614   0.505   0.000  0.00  0.00    +0.030 C 
ATOM      6  C   UNL     1       3.736   0.985   0.000  0.00  0.00    +0.030 C 
ATOM      7  C   UNL     1       3.717   1.938   0.000  0.00  0.00    +0.115 C 
ATOM      8  C   UNL     1       4.527   2.461   0.000  0.00  0.00    +0.025 C 
ATOM      9  C   UNL     1       5.362   2.000   0.000  0.00  0.00    +0.002 C 
ATOM     10  C   UNL     1       5.381   3.078   0.000  0.00  0.00    +0.002 C 
ATOM     11  C   UNL     1       3.537   3.103   0.000  0.00  0.00    +0.002 C 
ATOM     12  O   UNL     1       5.007   1.446   0.000  0.00  0.00    -0.356 OA
ATOM     13  C   UNL     1       5.406   1.028   0.000  0.00  0.00    +0.003 C 
ATOM     14  C   UNL     1       5.512   0.012   0.000  0.00  0.00    +0.142 C 
ATOM     15  C   UNL     1       2.894   0.505   0.000  0.00  0.00    +0.002 C 
ATOM     16  C   UNL     1       2.016   1.010   0.000  0.00  0.00    +0.000 C 
ATOM     17  C   UNL     1       1.162   0.505   0.000  0.00  0.00    +0.000 C 
ATOM     18  C   UNL     1       1.162  -0.499   0.000  0.00  0.00    +0.000 C 
ATOM     19  C   UNL     1       0.296  -0.991   0.000  0.00  0.00    +0.000 C 
ATOM     20  C   UNL     1       0.296  -2.007   0.000  0.00  0.00    +0.003 C 
ATOM     21  C   UNL     1      -0.577  -2.505   0.000  0.00  0.00    +0.037 C 
ATOM     22  C   UNL     1       0.084  -3.103   0.000  0.00  0.00    +0.004 C 
ATOM     23  C   UNL     1      -1.218  -3.103   0.000  0.00  0.00    +0.004 C 
ATOM     24  C   UNL     1      -1.442  -2.007   0.000  0.00  0.00    +0.169 C 
ATOM     25  C   UNL     1      -1.442  -0.991   0.000  0.00  0.00    +0.044 C 
ATOM     26  C   UNL     1       1.162  -2.505   0.000  0.00  0.00    +0.000 C 
ATOM     27  C   UNL     1       2.028  -2.007   0.000  0.00  0.00    +0.000 C 
ATOM     28  C   UNL     1       0.296  -0.137   0.000  0.00  0.00    +0.000 C 
ATOM     29  C   UNL     1      -0.577  -0.499   0.000  0.00  0.00    +0.004 C 
ATOM     30  C   UNL     1       2.041  -0.991   0.000  0.00  0.00    +0.000 C 
ATOM     31  C   UNL     1       2.028  -0.112   0.000  0.00  0.00    +0.000 C 
ENDROOT
BRANCH  24  32
ATOM     32  O   UNL     1      -2.278  -2.518   0.000  0.00  0.00    -0.452 OA
BRANCH  32  33
ATOM     33  C   UNL     1      -3.119  -2.069   0.000  0.00  0.00    +0.317 C 
ATOM     34  O   UNL     1      -4.029  -2.486   0.000  0.00  0.00    -0.250 OA
BRANCH  33  35
ATOM     35  C   UNL     1      -3.119  -1.153   0.000  0.00  0.00    +0.121 C 
BRANCH  35  36
ATOM     36  C   UNL     1      -3.941  -0.679   0.000  0.00  0.00    +0.126 C 
BRANCH  36  37
ATOM     37  C   UNL     1      -4.764  -1.140   0.000  0.00  0.00    +0.365 C 
ATOM     38  O   UNL     1      -5.512  -0.604   0.000  0.00  0.00    -0.246 OA
ATOM     39  O   UNL     1      -4.777  -2.112   0.000  0.00  0.00    -0.246 OA
ENDBRANCH  36  37
ENDBRANCH  35  36
ENDBRANCH  33  35
ENDBRANCH  32  33
ENDBRANCH  24  32
TORSDOF 5
ENDMDL
MODEL      357
REMARK  Name = ethyl 4-{7,11-dihydroxy-9a,11a-dimethyl-hexadecahydro-1H-cyclopenta[a]phenanthren-1-yl}pentanoate
REMARK  6 active torsions:
REMARK  status: ('A' for Active; 'I' for Inactive)
REMARK    1  A    between atoms: C_8  and  C_18
REMARK    2  A    between atoms: C_14  and  C_21
REMARK    3  A    between atoms: C_14  and  O_26
REMARK    4  A    between atoms: C_18  and  C_19
REMARK    5  A    between atoms: C_19  and  C_21
REMARK    6  A    between atoms: O_26  and  C_29
REMARK                            x       y       z     vdW  Elec       q    Type
REMARK                         _______ _______ _______ _____ _____    ______ ____
ROOT
ATOM      1  C   UNL     1      -0.321   0.892   0.000  0.00  0.00    +0.024 C 
ATOM      2  C   UNL     1      -0.321   1.872   0.000  0.00  0.00    +0.002 C 
ATOM      3  C   UNL     1       1.384   0.892   0.000  0.00  0.00    +0.011 C 
ATOM      4  C   UNL     1       1.372  -0.083   0.000  0.00  0.00    -0.004 C 
ATOM      5  C   UNL     1       0.521  -0.571   0.000  0.00  0.00    -0.001 C 
ATOM      6  C   UNL     1      -1.184   1.392   0.000  0.00  0.00    +0.151 C 
ATOM      7  O   UNL     1      -1.184   2.372   0.000  0.00  0.00    -0.223 OA
ATOM      8  C   UNL     1      -2.030   0.892   0.000  0.00  0.00    +0.029 C 
ATOM      9  C   UNL     1      -2.030  -0.083   0.000  0.00  0.00    +0.011 C 
ATOM     10  C   UNL     1      -1.184  -0.571   0.000  0.00  0.00    +0.009 C 
ATOM     11  C   UNL     1      -1.184  -1.559   0.000  0.00  0.00    -0.005 C 
ATOM     12  C   UNL     1      -2.030  -2.047   0.000  0.00  0.00    -0.004 C 
ATOM     13  C   UNL     1      -2.872  -1.559   0.000  0.00  0.00    +0.015 C 
ATOM     14  C   UNL     1      -3.723  -2.047   0.000  0.00  0.00    +0.029 C 
ATOM     15  C   UNL     1      -4.569  -1.559   0.000  0.00  0.00    +0.152 C 
ATOM     16  O   UNL     1      -5.423  -2.043   0.000  0.00  0.00    -0.223 OA
ATOM     17  C   UNL     1      -4.569  -0.571   0.000  0.00  0.00    +0.033 C 
ATOM     18  C   UNL     1      -3.723  -0.083   0.000  0.00  0.00    +0.002 C 
ATOM     19  C   UNL     1      -2.872  -0.571   0.000  0.00  0.00    -0.007 C 
ATOM     20  C   UNL     1      -2.872   0.408   0.000  0.00  0.00    -0.001 C 
ATOM     21  C   UNL     1      -0.321  -0.083   0.000  0.00  0.00    -0.002 C 
ENDROOT
BRANCH   3  22
ATOM     22  C   UNL     1       2.072   1.593   0.000  0.00  0.00    +0.010 C 
ATOM     23  C   UNL     1       2.322   2.543   0.000  0.00  0.00    -0.005 C 
BRANCH  22  24
ATOM     24  C   UNL     1       3.022   1.330   0.000  0.00  0.00    +0.007 C 
BRANCH  24  25
ATOM     25  C   UNL     1       3.010   0.354   0.000  0.00  0.00    +0.109 C 
BRANCH  25  26
ATOM     26  C   UNL     1       3.960   0.092   0.000  0.00  0.00    +0.317 C 
ATOM     27  O   UNL     1       4.648   0.792   0.000  0.00  0.00    -0.250 OA
BRANCH  26  28
ATOM     28  O   UNL     1       4.210  -0.846   0.000  0.00  0.00    -0.448 OA
BRANCH  28  29
ATOM     29  C   UNL     1       5.169  -1.105   0.000  0.00  0.00    +0.209 C 
ATOM     30  C   UNL     1       5.423  -2.059   0.000  0.00  0.00    +0.051 C 
ENDBRANCH  28  29
ENDBRANCH  26  28
ENDBRANCH  25  26
ENDBRANCH  24  25
ENDBRANCH  22  24
ENDBRANCH   3  22
TORSDOF 6
ENDMDL
MODEL      358
REMARK  Name = 9H-xanthen-9-one
REMARK  0 active torsions:
REMARK  status: ('A' for Active; 'I' for Inactive)
REMARK                            x       y       z     vdW  Elec       q    Type
REMARK                         _______ _______ _______ _____ _____    ______ ____
ROOT
ATOM      1  C   UNL     1       0.002   0.506   0.000  0.00  0.00    +0.201 A 
ATOM      2  O   UNL     1       0.002   1.506   0.000  0.00  0.00    -0.286 OA
ATOM      3  C   UNL     1       0.868  -0.002   0.000  0.00  0.00    +0.074 A 
ATOM      4  C   UNL     1       1.730   0.498   0.000  0.00  0.00    +0.006 A 
ATOM      5  C   UNL     1       2.592   0.006   0.000  0.00  0.00    +0.000 A 
ATOM      6  C   UNL     1       2.592  -1.002   0.000  0.00  0.00    +0.003 A 
ATOM      7  C   UNL     1       1.730  -1.501   0.000  0.00  0.00    +0.038 A 
ATOM      8  C   UNL     1       0.868  -1.002   0.000  0.00  0.00    +0.148 A 
ATOM      9  O   UNL     1       0.002  -1.506   0.000  0.00  0.00    -0.453 OA
ATOM     10  C   UNL     1      -0.868  -1.002   0.000  0.00  0.00    +0.148 A 
ATOM     11  C   UNL     1      -1.730  -1.506   0.000  0.00  0.00    +0.038 A 
ATOM     12  C   UNL     1      -2.592  -1.006   0.000  0.00  0.00    +0.003 A 
ATOM     13  C   UNL     1      -2.592  -0.002   0.000  0.00  0.00    +0.000 A 
ATOM     14  C   UNL     1      -1.730   0.498   0.000  0.00  0.00    +0.006 A 
ATOM     15  C   UNL     1      -0.860  -0.002   0.000  0.00  0.00    +0.074 A 
ENDROOT
TORSDOF 0
ENDMDL
MODEL      359
REMARK  Name = 3-(2,3,4,5,6-pentafluorobenzenesulfonyl)-2,3-dihydro-1,3-benzoxazol-2-one
REMARK  2 active torsions:
REMARK  status: ('A' for Active; 'I' for Inactive)
REMARK    1  A    between atoms: S_1  and  N_2
REMARK    2  A    between atoms: S_1  and  C_3
REMARK                            x       y       z     vdW  Elec       q    Type
REMARK                         _______ _______ _______ _____ _____    ______ ____
ROOT
ATOM      1  S   UNL     1       0.217  -0.526   0.000  0.00  0.00    +0.095 S 
ATOM      2  O   UNL     1      -0.742  -0.218   0.000  0.00  0.00    -0.147 OA
ATOM      3  O   UNL     1       1.161  -0.834   0.000  0.00  0.00    -0.147 OA
ENDROOT
BRANCH   1   4
ATOM      4  C   UNL     1       0.520   0.428   0.000  0.00  0.00    +0.187 A 
ATOM      5  C   UNL     1      -0.152   1.164   0.000  0.00  0.00    +0.191 A 
ATOM      6  F   UNL     1      -1.136   0.953   0.000  0.00  0.00    -0.200 F 
ATOM      7  C   UNL     1       0.151   2.114   0.000  0.00  0.00    +0.198 A 
ATOM      8  F   UNL     1      -0.520   2.856   0.000  0.00  0.00    -0.199 F 
ATOM      9  C   UNL     1       1.126   2.331   0.000  0.00  0.00    +0.199 A 
ATOM     10  C   UNL     1       1.798   1.592   0.000  0.00  0.00    +0.198 A 
ATOM     11  F   UNL     1       2.776   1.815   0.000  0.00  0.00    -0.199 F 
ATOM     12  F   UNL     1       1.429   3.290   0.000  0.00  0.00    -0.199 F 
ATOM     13  C   UNL     1       1.490   0.639   0.000  0.00  0.00    +0.191 A 
ATOM     14  F   UNL     1       2.162  -0.103   0.000  0.00  0.00    -0.200 F 
ENDBRANCH   1   4
BRANCH   1  15
ATOM     15  N   UNL     1      -0.096  -1.482   0.000  0.00  0.00    -0.140 N 
ATOM     16  C   UNL     1      -1.047  -1.790   0.000  0.00  0.00    +0.123 A 
ATOM     17  C   UNL     1      -1.908  -1.290   0.000  0.00  0.00    +0.022 A 
ATOM     18  C   UNL     1      -2.776  -1.790   0.000  0.00  0.00    +0.002 A 
ATOM     19  C   UNL     1      -2.776  -2.790   0.000  0.00  0.00    +0.003 A 
ATOM     20  C   UNL     1      -1.908  -3.290   0.000  0.00  0.00    +0.039 A 
ATOM     21  C   UNL     1      -1.047  -2.790   0.000  0.00  0.00    +0.168 A 
ATOM     22  O   UNL     1      -0.096  -3.097   0.000  0.00  0.00    -0.406 OA
ATOM     23  C   UNL     1       0.490  -2.294   0.000  0.00  0.00    +0.442 A 
ATOM     24  O   UNL     1       1.490  -2.300   0.000  0.00  0.00    -0.221 OA
ENDBRANCH   1  15
TORSDOF 2
ENDMDL
MODEL      360
REMARK  Name = methyl (3aR,4R,5S,5aR)-4-(acetyloxy)-3a-ethyl-5-hydroxy-8-methoxy-6-methyl-3a,4,5,5a,6,11,12,13a-octahydro-1H-indolizino[8,1-cd]carbazole-5-carboxylate
REMARK  6 active torsions:
REMARK  status: ('A' for Active; 'I' for Inactive)
REMARK    1  A    between atoms: C_2  and  C_11
REMARK    2  A    between atoms: C_4  and  C_23
REMARK    3  A    between atoms: C_7  and  O_13
REMARK    4  A    between atoms: C_11  and  O_28
REMARK    5  A    between atoms: O_13  and  C_17
REMARK    6  A    between atoms: C_25  and  O_29
REMARK                            x       y       z     vdW  Elec       q    Type
REMARK                         _______ _______ _______ _____ _____    ______ ____
ROOT
ATOM      1  C   UNL     1       0.258   1.092   0.000  0.00  0.00    +0.050 C 
ATOM      2  C   UNL     1      -0.516   1.554   0.000  0.00  0.00    +0.024 C 
ATOM      3  C   UNL     1      -0.472   2.558   0.000  0.00  0.00    +0.073 C 
ATOM      4  N   UNL     1       1.008   2.508   0.000  0.00  0.00    -0.269 NA
ATOM      5  C   UNL     1       1.817   2.985   0.000  0.00  0.00    +0.099 C 
ATOM      6  C   UNL     1       2.642   2.498   0.000  0.00  0.00    -0.013 C 
ATOM      7  C   UNL     1       2.642   1.544   0.000  0.00  0.00    -0.025 C 
ATOM      8  C   UNL     1       1.793   1.092   0.000  0.00  0.00    +0.072 C 
ATOM      9  C   UNL     1       1.793   0.183   0.000  0.00  0.00    +0.213 C 
ATOM     10  C   UNL     1       1.033  -0.254   0.000  0.00  0.00    +0.263 C 
ATOM     11  O   UNL     1       1.033   0.720   0.000  0.00  0.00    -0.209 OA
ATOM     12  C   UNL     1      -1.316   1.092   0.000  0.00  0.00    -0.007 A 
ATOM     13  C   UNL     1      -2.091   1.534   0.000  0.00  0.00    +0.000 A 
ATOM     14  C   UNL     1      -2.865   1.092   0.000  0.00  0.00    +0.037 A 
ATOM     15  C   UNL     1      -2.865   0.183   0.000  0.00  0.00    +0.140 A 
ATOM     16  C   UNL     1      -2.091  -0.254   0.000  0.00  0.00    +0.051 A 
ATOM     17  C   UNL     1      -1.316   0.183   0.000  0.00  0.00    +0.047 A 
ATOM     18  N   UNL     1      -0.542  -0.254   0.000  0.00  0.00    -0.309 N 
ATOM     19  C   UNL     1      -0.542  -1.207   0.000  0.00  0.00    +0.112 C 
ATOM     20  C   UNL     1       1.033   1.534   0.000  0.00  0.00    +0.070 C 
ATOM     21  C   UNL     1       0.258   0.183   0.000  0.00  0.00    +0.138 C 
ENDROOT
BRANCH   8  22
ATOM     22  C   UNL     1       2.786   0.601   0.000  0.00  0.00    +0.009 C 
ATOM     23  C   UNL     1       3.580   1.212   0.000  0.00  0.00    +0.001 C 
ENDBRANCH   8  22
BRANCH  10  24
ATOM     24  C   UNL     1       1.033  -1.604   0.000  0.00  0.00    +0.350 C 
ATOM     25  O   UNL     1       0.199  -2.091   0.000  0.00  0.00    -0.247 OA
BRANCH  24  26
ATOM     26  O   UNL     1       2.006  -1.982   0.000  0.00  0.00    -0.443 OA
ATOM     27  C   UNL     1       2.046  -2.985   0.000  0.00  0.00    +0.256 C 
ENDBRANCH  24  26
ENDBRANCH  10  24
BRANCH  15  28
ATOM     28  O   UNL     1      -3.689  -0.278   0.000  0.00  0.00    -0.471 OA
ATOM     29  C   UNL     1      -4.678   0.258   0.000  0.00  0.00    +0.252 C 
ENDBRANCH  15  28
BRANCH   9  30
ATOM     30  O   UNL     1       2.761  -0.447   0.000  0.00  0.00    -0.449 OA
BRANCH  30  31
ATOM     31  C   UNL     1       3.799  -0.209   0.000  0.00  0.00    +0.318 C 
ATOM     32  C   UNL     1       4.489   0.531   0.000  0.00  0.00    +0.121 C 
ATOM     33  O   UNL     1       4.678  -0.720   0.000  0.00  0.00    -0.250 OA
ENDBRANCH  30  31
ENDBRANCH   9  30
TORSDOF 6
ENDMDL
MODEL      361
REMARK  Name = 7-methyl-6,8,9,16-tetrahydrodi[1,3]benzodioxolo[4,5-c:5,6-g]azecin-15(7H)-one
REMARK  0 active torsions:
REMARK  status: ('A' for Active; 'I' for Inactive)
REMARK                            x       y       z     vdW  Elec       q    Type
REMARK                         _______ _______ _______ _____ _____    ______ ____
ROOT
ATOM      1  C   UNL     1       1.781  -0.498   0.000  0.00  0.00    +0.028 A 
ATOM      2  C   UNL     1       1.781   0.498   0.000  0.00  0.00    +0.102 C 
ATOM      3  N   UNL     1       0.855   0.997   0.000  0.00  0.00    -0.267 NA
ATOM      4  C   UNL     1       1.781   1.490   0.000  0.00  0.00    +0.090 C 
ATOM      5  C   UNL     1       0.855   1.994   0.000  0.00  0.00    +0.077 C 
ATOM      6  C   UNL     1       0.000   2.493   0.000  0.00  0.00    +0.044 C 
ATOM      7  C   UNL     1      -0.855   1.994   0.000  0.00  0.00    -0.015 A 
ATOM      8  C   UNL     1      -0.855   0.997   0.000  0.00  0.00    +0.034 A 
ATOM      9  C   UNL     1      -1.709   0.498   0.000  0.00  0.00    +0.043 A 
ATOM     10  C   UNL     1      -2.635   0.997   0.000  0.00  0.00    +0.176 A 
ATOM     11  C   UNL     1      -2.635   1.994   0.000  0.00  0.00    +0.176 A 
ATOM     12  O   UNL     1      -3.561   2.279   0.000  0.00  0.00    -0.435 OA
ATOM     13  C   UNL     1      -4.131   1.424   0.000  0.00  0.00    +0.429 C 
ATOM     14  O   UNL     1      -3.490   0.641   0.000  0.00  0.00    -0.435 OA
ATOM     15  C   UNL     1       0.000   0.498   0.000  0.00  0.00    +0.177 C 
ATOM     16  O   UNL     1      -0.855   0.000   0.000  0.00  0.00    -0.291 OA
ATOM     17  C   UNL     1       0.000  -0.498   0.000  0.00  0.00    +0.095 C 
ATOM     18  C   UNL     1      -1.709   2.493   0.000  0.00  0.00    +0.036 A 
ATOM     19  C   UNL     1       0.855  -0.997   0.000  0.00  0.00    -0.014 A 
ATOM     20  C   UNL     1       0.855  -1.994   0.000  0.00  0.00    -0.001 A 
ATOM     21  C   UNL     1       1.781  -2.493   0.000  0.00  0.00    +0.040 A 
ATOM     22  C   UNL     1       2.635  -1.994   0.000  0.00  0.00    +0.176 A 
ATOM     23  O   UNL     1       3.561  -2.279   0.000  0.00  0.00    -0.435 OA
ATOM     24  C   UNL     1       4.131  -1.496   0.000  0.00  0.00    +0.429 C 
ATOM     25  O   UNL     1       3.561  -0.712   0.000  0.00  0.00    -0.435 OA
ATOM     26  C   UNL     1       2.635  -0.997   0.000  0.00  0.00    +0.173 A 
ENDROOT
TORSDOF 0
ENDMDL
MODEL      362
REMARK  Name = 4,8-dimethoxyfuro[2,3-b]quinolin-7-ol
REMARK  2 active torsions:
REMARK  status: ('A' for Active; 'I' for Inactive)
REMARK    1  A    between atoms: C_6  and  O_14
REMARK    2  A    between atoms: C_7  and  O_15
REMARK                            x       y       z     vdW  Elec       q    Type
REMARK                         _______ _______ _______ _____ _____    ______ ____
ROOT
ATOM      1  C   UNL     1      -0.320  -0.494   0.000  0.00  0.00    +0.124 A 
ATOM      2  C   UNL     1      -1.171  -1.009   0.000  0.00  0.00    +0.195 A 
ATOM      3  C   UNL     1      -2.053  -0.494   0.000  0.00  0.00    +0.231 A 
ATOM      4  O   UNL     1      -2.931  -1.009   0.000  0.00  0.00    -0.283 OA
ATOM      5  C   UNL     1      -2.053   0.501   0.000  0.00  0.00    +0.045 A 
ATOM      6  C   UNL     1      -1.171   1.005   0.000  0.00  0.00    +0.008 A 
ATOM      7  C   UNL     1      -0.320   0.501   0.000  0.00  0.00    +0.055 A 
ATOM      8  C   UNL     1       0.542   1.005   0.000  0.00  0.00    +0.145 A 
ATOM      9  C   UNL     1       1.405   0.501   0.000  0.00  0.00    +0.091 A 
ATOM     10  C   UNL     1       1.405  -0.494   0.000  0.00  0.00    +0.233 A 
ATOM     11  O   UNL     1       2.361  -0.810   0.000  0.00  0.00    -0.433 OA
ATOM     12  C   UNL     1       2.931   0.014   0.000  0.00  0.00    +0.182 A 
ATOM     13  C   UNL     1       2.361   0.818   0.000  0.00  0.00    +0.048 A 
ATOM     14  N   UNL     1       0.542  -1.009   0.000  0.00  0.00    -0.208 NA
ENDROOT
BRANCH   2  15
ATOM     15  O   UNL     1      -1.171  -2.000   0.000  0.00  0.00    -0.467 OA
ATOM     16  C   UNL     1      -0.320  -2.496   0.000  0.00  0.00    +0.253 C 
ENDBRANCH   2  15
BRANCH   8  17
ATOM     17  O   UNL     1       0.542   2.008   0.000  0.00  0.00    -0.471 OA
ATOM     18  C   UNL     1       1.405   2.496   0.000  0.00  0.00    +0.252 C 
ENDBRANCH   8  17
TORSDOF 2
ENDMDL
MODEL      363
REMARK  Name = 3-hydroxy-1H,2H,3H,9H-pyrrolo[2,1-b]quinazolin-9-one
REMARK  0 active torsions:
REMARK  status: ('A' for Active; 'I' for Inactive)
REMARK                            x       y       z     vdW  Elec       q    Type
REMARK                         _______ _______ _______ _____ _____    ______ ____
ROOT
ATOM      1  N   UNL     1       0.960   0.387   0.000  0.00  0.00    -0.282 N 
ATOM      2  C   UNL     1       1.910   0.689   0.000  0.00  0.00    +0.113 C 
ATOM      3  C   UNL     1       2.498  -0.126   0.000  0.00  0.00    +0.065 C 
ATOM      4  C   UNL     1       1.910  -0.935   0.000  0.00  0.00    +0.210 C 
ATOM      5  O   UNL     1       2.212  -1.885   0.000  0.00  0.00    -0.215 OA
ATOM      6  C   UNL     1       0.086   0.890   0.000  0.00  0.00    +0.263 A 
ATOM      7  O   UNL     1       0.086   1.885   0.000  0.00  0.00    -0.267 OA
ATOM      8  C   UNL     1      -0.774   0.387   0.000  0.00  0.00    +0.074 A 
ATOM      9  C   UNL     1      -1.639   0.885   0.000  0.00  0.00    +0.006 A 
ATOM     10  C   UNL     1      -2.498   0.377   0.000  0.00  0.00    +0.000 A 
ATOM     11  C   UNL     1      -2.498  -0.618   0.000  0.00  0.00    +0.002 A 
ATOM     12  C   UNL     1      -1.639  -1.116   0.000  0.00  0.00    +0.019 A 
ATOM     13  C   UNL     1      -0.779  -0.623   0.000  0.00  0.00    +0.087 A 
ATOM     14  N   UNL     1       0.086  -1.121   0.000  0.00  0.00    -0.230 NA
ATOM     15  C   UNL     1       0.955  -0.623   0.000  0.00  0.00    +0.153 A 
ENDROOT
TORSDOF 0
ENDMDL
MODEL      364
REMARK  Name = 4-{3a,7-dihydroxy-9a,11a-dimethyl-hexadecahydro-1H-cyclopenta[a]phenanthren-1-yl}-2,5-dihydrofuran-2-one
REMARK  1 active torsions:
REMARK  status: ('A' for Active; 'I' for Inactive)
REMARK    1  A    between atoms: C_6  and  C_7
REMARK                            x       y       z     vdW  Elec       q    Type
REMARK                         _______ _______ _______ _____ _____    ______ ____
ROOT
ATOM      1  C   UNL     1       1.419  -1.139   0.000  0.00  0.00    +0.123 C 
ATOM      2  O   UNL     1       1.419  -2.222   0.000  0.00  0.00    -0.226 OA
ATOM      3  C   UNL     1       2.316  -1.426   0.000  0.00  0.00    +0.030 C 
ATOM      4  C   UNL     1       2.876  -0.654   0.000  0.00  0.00    +0.007 C 
ATOM      5  C   UNL     1       2.316   0.103   0.000  0.00  0.00    +0.024 C 
ATOM      6  C   UNL     1       0.556  -1.647   0.000  0.00  0.00    +0.037 C 
ATOM      7  C   UNL     1       0.556  -2.610   0.000  0.00  0.00    -0.002 C 
ATOM      8  C   UNL     1      -0.273  -3.085   0.000  0.00  0.00    -0.004 C 
ATOM      9  C   UNL     1      -1.136  -2.610   0.000  0.00  0.00    +0.015 C 
ATOM     10  C   UNL     1      -1.136  -1.647   0.000  0.00  0.00    -0.007 C 
ATOM     11  C   UNL     1      -1.136  -0.654   0.000  0.00  0.00    -0.001 C 
ATOM     12  C   UNL     1      -2.013  -1.139   0.000  0.00  0.00    +0.002 C 
ATOM     13  C   UNL     1      -2.795  -1.647   0.000  0.00  0.00    +0.033 C 
ATOM     14  C   UNL     1      -2.795  -2.610   0.000  0.00  0.00    +0.152 C 
ATOM     15  O   UNL     1      -3.682  -3.128   0.000  0.00  0.00    -0.223 OA
ATOM     16  C   UNL     1      -2.013  -3.085   0.000  0.00  0.00    +0.029 C 
ATOM     17  C   UNL     1      -0.273  -1.139   0.000  0.00  0.00    +0.011 C 
ATOM     18  C   UNL     1      -0.273  -0.161   0.000  0.00  0.00    -0.004 C 
ATOM     19  C   UNL     1       0.556   0.324   0.000  0.00  0.00    +0.002 C 
ATOM     20  C   UNL     1       1.419  -0.161   0.000  0.00  0.00    +0.029 C 
ATOM     21  C   UNL     1       1.419   0.827   0.000  0.00  0.00    +0.003 C 
ENDROOT
BRANCH   5  22
ATOM     22  C   UNL     1       2.670   1.115   0.000  0.00  0.00    +0.005 C 
ATOM     23  C   UNL     1       3.682   1.450   0.000  0.00  0.00    +0.231 C 
ATOM     24  O   UNL     1       3.682   2.486   0.000  0.00  0.00    -0.441 OA
ATOM     25  C   UNL     1       2.670   2.855   0.000  0.00  0.00    +0.341 C 
ATOM     26  O   UNL     1       2.316   3.876   0.000  0.00  0.00    -0.245 OA
ATOM     27  C   UNL     1       2.028   1.934   0.000  0.00  0.00    +0.077 C 
ENDBRANCH   5  22
TORSDOF 1
ENDMDL
MODEL      365
REMARK  Name = 10-(acetyloxy)-2,4a,6a,6b,9,9,12a-heptamethyl-13-oxo-1,2,3,4,4a,5,6,6a,6b,7,8,8a,9,10,11,12,12a,12b,13,14b-icosahydropicene-2-carboxylic acid
REMARK  3 active torsions:
REMARK  status: ('A' for Active; 'I' for Inactive)
REMARK    1  A    between atoms: C_11  and  C_16
REMARK    2  A    between atoms: C_14  and  O_20
REMARK    3  A    between atoms: O_20  and  C_21
REMARK                            x       y       z     vdW  Elec       q    Type
REMARK                         _______ _______ _______ _____ _____    ______ ____
ROOT
ATOM      1  C   UNL     1       1.407  -0.120   0.000  0.00  0.00    -0.046 C 
ATOM      2  C   UNL     1       2.356   0.537   0.000  0.00  0.00    +0.033 C 
ATOM      3  C   UNL     1       3.284   0.005   0.000  0.00  0.00    -0.000 C 
ATOM      4  C   UNL     1       4.326  -0.610   0.000  0.00  0.00    +0.000 C 
ATOM      5  C   UNL     1       4.222   0.537   0.000  0.00  0.00    +0.001 C 
ATOM      6  C   UNL     1       4.222   1.590   0.000  0.00  0.00    +0.011 C 
ATOM      7  C   UNL     1       3.284   2.111   0.000  0.00  0.00    +0.094 C 
ATOM      8  C   UNL     1       2.356   2.705   0.000  0.00  0.00    +0.011 C 
ATOM      9  C   UNL     1       3.284  -1.069   0.000  0.00  0.00    +0.000 C 
ATOM     10  C   UNL     1       2.356  -1.590   0.000  0.00  0.00    +0.004 C 
ATOM     11  C   UNL     1       2.356   1.590   0.000  0.00  0.00    +0.010 C 
ATOM     12  C   UNL     1       0.678   0.339   0.000  0.00  0.00    +0.029 C 
ATOM     13  C   UNL     1      -0.052  -0.120   0.000  0.00  0.00    +0.172 C 
ATOM     14  O   UNL     1      -0.928   0.339   0.000  0.00  0.00    -0.291 OA
ATOM     15  C   UNL     1      -0.052  -0.964   0.000  0.00  0.00    +0.062 C 
ATOM     16  C   UNL     1      -0.792  -1.381   0.000  0.00  0.00    +0.007 C 
ATOM     17  C   UNL     1      -0.792  -0.506   0.000  0.00  0.00    +0.000 C 
ATOM     18  C   UNL     1      -1.574  -0.964   0.000  0.00  0.00    +0.004 C 
ATOM     19  C   UNL     1      -2.325  -1.381   0.000  0.00  0.00    +0.044 C 
ATOM     20  C   UNL     1      -2.325  -2.330   0.000  0.00  0.00    +0.169 C 
ATOM     21  C   UNL     1      -1.574  -2.809   0.000  0.00  0.00    +0.037 C 
ATOM     22  C   UNL     1      -0.928  -3.696   0.000  0.00  0.00    +0.004 C 
ATOM     23  C   UNL     1      -2.116  -3.862   0.000  0.00  0.00    +0.004 C 
ATOM     24  C   UNL     1      -0.792  -2.330   0.000  0.00  0.00    +0.004 C 
ATOM     25  C   UNL     1      -0.052  -2.809   0.000  0.00  0.00    +0.000 C 
ATOM     26  C   UNL     1       0.678  -2.330   0.000  0.00  0.00    +0.001 C 
ATOM     27  C   UNL     1       0.678  -1.381   0.000  0.00  0.00    +0.010 C 
ATOM     28  C   UNL     1       0.678  -0.547   0.000  0.00  0.00    +0.001 C 
ATOM     29  C   UNL     1       1.407  -0.964   0.000  0.00  0.00    +0.015 C 
ATOM     30  C   UNL     1       1.428  -1.975   0.000  0.00  0.00    +0.004 C 
ENDROOT
BRANCH   7  31
ATOM     31  C   UNL     1       4.170   2.726   0.000  0.00  0.00    +0.364 C 
ATOM     32  O   UNL     1       5.212   2.111   0.000  0.00  0.00    -0.246 OA
ATOM     33  O   UNL     1       4.170   3.862   0.000  0.00  0.00    -0.246 OA
ENDBRANCH   7  31
BRANCH  20  34
ATOM     34  O   UNL     1      -3.450  -3.018   0.000  0.00  0.00    -0.452 OA
BRANCH  34  35
ATOM     35  C   UNL     1      -4.410  -2.778   0.000  0.00  0.00    +0.317 C 
ATOM     36  C   UNL     1      -4.639  -1.840   0.000  0.00  0.00    +0.121 C 
ATOM     37  O   UNL     1      -5.212  -3.425   0.000  0.00  0.00    -0.250 OA
ENDBRANCH  34  35
ENDBRANCH  20  34
TORSDOF 3
ENDMDL
MODEL      366
REMARK  Name = 4-(3a,11-dihydroxy-7-{[4-hydroxy-5-({4-hydroxy-5-[(4-hydroxy-6-methyl-5-{[3,4,5-trihydroxy-6-(hydroxymethyl)oxan-2-yl]oxy}oxan-2-yl)oxy]-6-methyloxan-2-yl}oxy)-6-methyloxan-2-yl]oxy}-9a,11a-dimethyl-h exadecahydro-1H-cyclopenta[a]phenanthren-1-yl)-2,5-dihydrofuran-2-one
REMARK  10 active torsions:
REMARK  status: ('A' for Active; 'I' for Inactive)
REMARK    1  A    between atoms: C_3  and  O_14
REMARK    2  A    between atoms: C_10  and  C_12
REMARK    3  A    between atoms: C_13  and  O_14
REMARK    4  A    between atoms: C_16  and  O_40
REMARK    5  A    between atoms: C_17  and  O_39
REMARK    6  A    between atoms: C_18  and  C_62
REMARK    7  A    between atoms: C_19  and  O_40
REMARK    8  A    between atoms: C_20  and  O_39
REMARK    9  A    between atoms: C_22  and  O_46
REMARK   10  A    between atoms: O_46  and  C_51
REMARK                            x       y       z     vdW  Elec       q    Type
REMARK                         _______ _______ _______ _____ _____    ______ ____
ROOT
ATOM      1  C   UNL     1       2.554   1.402   0.000  0.00  0.00    +0.238 C 
ATOM      2  C   UNL     1       1.988   0.704   0.000  0.00  0.00    +0.097 C 
ATOM      3  C   UNL     1       0.930   0.704   0.000  0.00  0.00    +0.186 C 
ATOM      4  O   UNL     1       0.997  -0.345   0.000  0.00  0.00    -0.220 OA
ATOM      5  C   UNL     1       0.382   1.402   0.000  0.00  0.00    +0.175 C 
ATOM      6  C   UNL     1       0.930   2.130   0.000  0.00  0.00    +0.147 C 
ATOM      7  C   UNL     1       0.883   3.329   0.000  0.00  0.00    +0.035 C 
ATOM      8  O   UNL     1       1.988   2.130   0.000  0.00  0.00    -0.330 OA
ENDROOT
BRANCH   1   9
ATOM      9  O   UNL     1       2.554   2.309   0.000  0.00  0.00    -0.333 OA
BRANCH   9  23
ATOM     10  C   UNL     1       5.935   3.622   0.000  0.00  0.00    +0.125 C 
ATOM     11  O   UNL     1       5.935   1.610   0.000  0.00  0.00    -0.226 OA
ATOM     12  C   UNL     1       6.549   3.442   0.000  0.00  0.00    +0.031 C 
ATOM     13  C   UNL     1       6.936   3.962   0.000  0.00  0.00    +0.007 C 
ATOM     14  C   UNL     1       6.549   4.490   0.000  0.00  0.00    +0.027 C 
ATOM     15  C   UNL     1       5.416   3.329   0.000  0.00  0.00    +0.038 C 
ATOM     16  C   UNL     1       5.416   2.677   0.000  0.00  0.00    -0.002 C 
ATOM     17  C   UNL     1       4.821   2.375   0.000  0.00  0.00    -0.004 C 
ATOM     18  C   UNL     1       4.282   2.677   0.000  0.00  0.00    +0.015 C 
ATOM     19  C   UNL     1       4.282   3.329   0.000  0.00  0.00    -0.007 C 
ATOM     20  C   UNL     1       4.235   4.603   0.000  0.00  0.00    -0.001 C 
ATOM     21  C   UNL     1       3.650   3.622   0.000  0.00  0.00    +0.002 C 
ATOM     22  C   UNL     1       3.121   3.329   0.000  0.00  0.00    +0.030 C 
ATOM     23  C   UNL     1       3.121   2.677   0.000  0.00  0.00    +0.117 C 
ATOM     24  C   UNL     1       3.650   2.375   0.000  0.00  0.00    +0.026 C 
ATOM     25  C   UNL     1       4.821   3.622   0.000  0.00  0.00    +0.014 C 
ATOM     26  C   UNL     1       4.821   4.301   0.000  0.00  0.00    +0.029 C 
ATOM     27  C   UNL     1       5.416   4.603   0.000  0.00  0.00    +0.154 C 
ATOM     28  O   UNL     1       5.368   5.643   0.000  0.00  0.00    -0.223 OA
ATOM     29  C   UNL     1       5.935   4.301   0.000  0.00  0.00    +0.057 C 
ATOM     30  C   UNL     1       5.869   6.596   0.000  0.00  0.00    +0.005 C 
BRANCH  14  31
ATOM     31  C   UNL     1       6.823   5.416   0.000  0.00  0.00    +0.005 C 
ATOM     32  C   UNL     1       7.729   5.737   0.000  0.00  0.00    +0.231 C 
ATOM     33  O   UNL     1       7.729   6.691   0.000  0.00  0.00    -0.441 OA
ATOM     34  C   UNL     1       6.823   6.983   0.000  0.00  0.00    +0.341 C 
ATOM     35  O   UNL     1       6.482   7.909   0.000  0.00  0.00    -0.245 OA
ATOM     36  C   UNL     1       6.228   6.143   0.000  0.00  0.00    +0.077 C 
ENDBRANCH  14  31
ENDBRANCH   9  23
ENDBRANCH   1   9
BRANCH   5  37
ATOM     37  O   UNL     1       0.382   0.449   0.000  0.00  0.00    -0.328 OA
BRANCH  37  38
ATOM     38  C   UNL     1       0.382  -0.411   0.000  0.00  0.00    +0.238 C 
ATOM     39  C   UNL     1      -0.232  -1.157   0.000  0.00  0.00    +0.097 C 
ATOM     40  C   UNL     1      -1.365  -1.157   0.000  0.00  0.00    +0.186 C 
ATOM     41  O   UNL     1      -1.365  -1.969   0.000  0.00  0.00    -0.220 OA
ATOM     42  C   UNL     1      -1.950  -0.411   0.000  0.00  0.00    +0.175 C 
ATOM     43  C   UNL     1      -1.365   0.382   0.000  0.00  0.00    +0.147 C 
ATOM     44  C   UNL     1      -1.365   1.450   0.000  0.00  0.00    +0.035 C 
ATOM     45  O   UNL     1      -0.232   0.382   0.000  0.00  0.00    -0.330 OA
BRANCH  42  46
ATOM     46  O   UNL     1      -1.950  -1.742   0.000  0.00  0.00    -0.328 OA
BRANCH  46  47
ATOM     47  C   UNL     1      -1.950  -3.263   0.000  0.00  0.00    +0.238 C 
ATOM     48  C   UNL     1      -2.517  -4.103   0.000  0.00  0.00    +0.097 C 
ATOM     49  C   UNL     1      -3.792  -4.103   0.000  0.00  0.00    +0.186 C 
ATOM     50  O   UNL     1      -3.792  -5.302   0.000  0.00  0.00    -0.220 OA
ATOM     51  C   UNL     1      -4.405  -3.263   0.000  0.00  0.00    +0.175 C 
ATOM     52  C   UNL     1      -3.792  -2.422   0.000  0.00  0.00    +0.147 C 
ATOM     53  C   UNL     1      -3.792  -1.110   0.000  0.00  0.00    +0.035 C 
ATOM     54  O   UNL     1      -2.517  -2.422   0.000  0.00  0.00    -0.330 OA
BRANCH  51  55
ATOM     55  O   UNL     1      -4.405  -4.689   0.000  0.00  0.00    -0.326 OA
BRANCH  55  56
ATOM     56  C   UNL     1      -4.405  -6.143   0.000  0.00  0.00    +0.270 C 
ATOM     57  O   UNL     1      -5.123  -5.189   0.000  0.00  0.00    -0.326 OA
ATOM     58  C   UNL     1      -6.530  -5.189   0.000  0.00  0.00    +0.183 C 
ATOM     59  C   UNL     1      -7.210  -6.143   0.000  0.00  0.00    +0.214 C 
ATOM     60  C   UNL     1      -6.530  -7.097   0.000  0.00  0.00    +0.220 C 
ATOM     61  O   UNL     1      -6.464  -6.029   0.000  0.00  0.00    -0.217 OA
ATOM     62  O   UNL     1      -7.163  -7.635   0.000  0.00  0.00    -0.218 OA
ATOM     63  C   UNL     1      -5.123  -7.097   0.000  0.00  0.00    +0.241 C 
ATOM     64  O   UNL     1      -5.123  -7.909   0.000  0.00  0.00    -0.215 OA
BRANCH  58  65
ATOM     65  C   UNL     1      -6.549  -4.008   0.000  0.00  0.00    +0.214 C 
ATOM     66  O   UNL     1      -7.729  -3.244   0.000  0.00  0.00    -0.218 OA
ENDBRANCH  58  65
ENDBRANCH  55  56
ENDBRANCH  51  55
ENDBRANCH  46  47
ENDBRANCH  42  46
ENDBRANCH  37  38
ENDBRANCH   5  37
TORSDOF 10
ENDMDL
MODEL      367
REMARK  Name = 1-(3-hydroxy-3-methylpentyl)-2,5,5,8a-tetramethyl-decahydronaphthalen-2-ol
REMARK  4 active torsions:
REMARK  status: ('A' for Active; 'I' for Inactive)
REMARK    1  A    between atoms: C_3  and  C_7
REMARK    2  A    between atoms: C_7  and  C_10
REMARK    3  A    between atoms: C_9  and  C_10
REMARK    4  A    between atoms: C_9  and  C_20
REMARK                            x       y       z     vdW  Elec       q    Type
REMARK                         _______ _______ _______ _____ _____    ______ ____
ROOT
ATOM      1  C   UNL     1      -1.278  -0.315   0.000  0.00  0.00    -0.001 C 
ATOM      2  C   UNL     1      -1.278   0.713   0.000  0.00  0.00    -0.000 C 
ATOM      3  C   UNL     1      -2.164   0.193   0.000  0.00  0.00    -0.000 C 
ATOM      4  C   UNL     1      -3.062  -0.315   0.000  0.00  0.00    -0.000 C 
ATOM      5  C   UNL     1      -3.062  -1.355   0.000  0.00  0.00    -0.000 C 
ATOM      6  C   UNL     1      -2.164  -1.875   0.000  0.00  0.00    -0.003 C 
ATOM      7  C   UNL     1      -1.294  -2.379   0.000  0.00  0.00    -0.000 C 
ATOM      8  C   UNL     1      -3.054  -2.406   0.000  0.00  0.00    -0.000 C 
ATOM      9  C   UNL     1      -0.388   0.193   0.000  0.00  0.00    +0.028 C 
ATOM     10  C   UNL     1       0.510  -0.315   0.000  0.00  0.00    +0.127 C 
ATOM     11  C   UNL     1       0.518   0.665   0.000  0.00  0.00    +0.033 C 
ATOM     12  O   UNL     1       1.369  -0.788   0.000  0.00  0.00    -0.226 OA
ATOM     13  C   UNL     1       0.510  -1.355   0.000  0.00  0.00    +0.030 C 
ATOM     14  C   UNL     1      -0.388  -1.867   0.000  0.00  0.00    -0.001 C 
ATOM     15  C   UNL     1      -1.278  -1.355   0.000  0.00  0.00    +0.013 C 
ENDROOT
BRANCH   9  16
ATOM     16  C   UNL     1      -0.408   1.213   0.000  0.00  0.00    +0.005 C 
BRANCH  16  17
ATOM     17  C   UNL     1       0.482   1.745   0.000  0.00  0.00    +0.030 C 
BRANCH  17  18
ATOM     18  C   UNL     1       1.361   1.292   0.000  0.00  0.00    +0.127 C 
ATOM     19  C   UNL     1       1.361   0.299   0.000  0.00  0.00    +0.033 C 
ATOM     20  O   UNL     1       1.361   2.406   0.000  0.00  0.00    -0.226 OA
BRANCH  18  21
ATOM     21  C   UNL     1       2.192   1.820   0.000  0.00  0.00    +0.030 C 
ATOM     22  C   UNL     1       3.062   1.355   0.000  0.00  0.00    +0.003 C 
ENDBRANCH  18  21
ENDBRANCH  17  18
ENDBRANCH  16  17
ENDBRANCH   9  16
TORSDOF 4
ENDMDL
MODEL      368
REMARK  Name = 4-{9a-[(Z)-[(adamantan-1-yl)imino]methyl]-3a,5a,7-trihydroxy-11a-methyl-hexadecahydro-1H-cyclopenta[a]phenanthren-1-yl}-2,5-dihydrofuran-2-one
REMARK  3 active torsions:
REMARK  status: ('A' for Active; 'I' for Inactive)
REMARK    1  A    between atoms: C_1  and  C_10
REMARK    2  A    between atoms: C_7  and  C_8
REMARK    3  A    between atoms: C_9  and  N_12
REMARK                            x       y       z     vdW  Elec       q    Type
REMARK                         _______ _______ _______ _____ _____    ______ ____
ROOT
ATOM      1  C   UNL     1      -1.425  -0.650   0.000  0.00  0.00    +0.058 C 
ATOM      2  C   UNL     1      -1.944   0.185   0.000  0.00  0.00    +0.010 C 
ATOM      3  C   UNL     1      -2.871   0.154   0.000  0.00  0.00    +0.033 C 
ATOM      4  C   UNL     1      -3.348  -0.696   0.000  0.00  0.00    +0.154 C 
ATOM      5  C   UNL     1      -2.898  -1.482   0.000  0.00  0.00    +0.064 C 
ATOM      6  O   UNL     1      -4.355  -0.716   0.000  0.00  0.00    -0.223 OA
ATOM      7  C   UNL     1      -0.452  -0.650   0.000  0.00  0.00    +0.019 C 
ATOM      8  C   UNL     1       0.013   0.185   0.000  0.00  0.00    -0.004 C 
ATOM      9  C   UNL     1       0.948   0.200   0.000  0.00  0.00    +0.002 C 
ATOM     10  C   UNL     1       1.471  -0.624   0.000  0.00  0.00    +0.029 C 
ATOM     11  C   UNL     1       0.994  -1.475   0.000  0.00  0.00    +0.123 C 
ATOM     12  O   UNL     1       0.490  -2.390   0.000  0.00  0.00    -0.226 OA
ATOM     13  C   UNL     1       1.662  -2.181   0.000  0.00  0.00    +0.030 C 
ATOM     14  C   UNL     1       2.513  -1.776   0.000  0.00  0.00    +0.007 C 
ATOM     15  C   UNL     1       1.937   0.185   0.000  0.00  0.00    +0.003 C 
ATOM     16  C   UNL     1       2.406  -0.853   0.000  0.00  0.00    +0.024 C 
ATOM     17  C   UNL     1       0.025  -1.475   0.000  0.00  0.00    +0.038 C 
ATOM     18  C   UNL     1      -0.452  -2.325   0.000  0.00  0.00    +0.001 C 
ATOM     19  C   UNL     1      -1.394  -2.325   0.000  0.00  0.00    +0.031 C 
ATOM     20  C   UNL     1      -1.910  -1.502   0.000  0.00  0.00    +0.133 C 
ATOM     21  O   UNL     1      -2.532  -2.619   0.000  0.00  0.00    -0.225 OA
ENDROOT
BRANCH  16  22
ATOM     22  C   UNL     1       3.173  -0.109   0.000  0.00  0.00    +0.005 C 
ATOM     23  C   UNL     1       4.218  -0.319   0.000  0.00  0.00    +0.231 C 
ATOM     24  O   UNL     1       4.748   0.605   0.000  0.00  0.00    -0.441 OA
ATOM     25  C   UNL     1       4.024   1.376   0.000  0.00  0.00    +0.341 C 
ATOM     26  O   UNL     1       4.245   2.475   0.000  0.00  0.00    -0.245 OA
ATOM     27  C   UNL     1       3.035   0.872   0.000  0.00  0.00    +0.077 C 
ENDBRANCH  16  22
BRANCH   1  28
ATOM     28  C   UNL     1      -0.773   0.460   0.000  0.00  0.00    +0.068 C 
ATOM     29  N   UNL     1      -1.379   1.284   0.000  0.00  0.00    -0.277 NA
BRANCH  29  30
ATOM     30  C   UNL     1      -2.356   1.200   0.000  0.00  0.00    +0.084 C 
ATOM     31  C   UNL     1      -2.356   2.253   0.000  0.00  0.00    +0.022 C 
ATOM     32  C   UNL     1      -3.310   2.619   0.000  0.00  0.00    +0.002 C 
ATOM     33  C   UNL     1      -3.989   2.005   0.000  0.00  0.00    +0.000 C 
ATOM     34  C   UNL     1      -3.989   0.735   0.000  0.00  0.00    +0.002 C 
ATOM     35  C   UNL     1      -4.748   0.395   0.000  0.00  0.00    +0.000 C 
ATOM     36  C   UNL     1      -4.088   1.208   0.000  0.00  0.00    +0.002 C 
ATOM     37  C   UNL     1      -4.081   2.227   0.000  0.00  0.00    +0.000 C 
ATOM     38  C   UNL     1      -2.990   0.414   0.000  0.00  0.00    +0.022 C 
ATOM     39  C   UNL     1      -3.135   0.815   0.000  0.00  0.00    +0.022 C 
ENDBRANCH  29  30
ENDBRANCH   1  28
TORSDOF 3
ENDMDL
MODEL      369
REMARK  Name = 1-acetyl-9a,11a-dimethyl-3H,3aH,3bH,4H,6H,7H,8H,9H,9aH,9bH,10H,11H,11aH-cyclopenta[a]phenanthren-7-yl acetate
REMARK  3 active torsions:
REMARK  status: ('A' for Active; 'I' for Inactive)
REMARK    1  A    between atoms: C_3  and  C_15
REMARK    2  A    between atoms: C_17  and  O_18
REMARK    3  A    between atoms: O_18  and  C_19
REMARK                            x       y       z     vdW  Elec       q    Type
REMARK                         _______ _______ _______ _____ _____    ______ ____
ROOT
ATOM      1  C   UNL     1       1.917   1.245   0.000  0.00  0.00    +0.022 C 
ATOM      2  C   UNL     1       1.917   2.267   0.000  0.00  0.00    +0.004 C 
ATOM      3  C   UNL     1       1.045   1.743   0.000  0.00  0.00    +0.004 C 
ATOM      4  C   UNL     1       0.174   1.245   0.000  0.00  0.00    +0.001 C 
ATOM      5  C   UNL     1       0.174   0.249   0.000  0.00  0.00    +0.004 C 
ATOM      6  C   UNL     1       1.071  -0.249   0.000  0.00  0.00    +0.005 C 
ATOM      7  C   UNL     1       1.071  -1.245   0.000  0.00  0.00    +0.025 C 
ATOM      8  C   UNL     1       0.174  -1.743   0.000  0.00  0.00    -0.035 C 
ATOM      9  C   UNL     1      -0.672  -1.245   0.000  0.00  0.00    -0.046 C 
ATOM     10  C   UNL     1      -1.544  -1.743   0.000  0.00  0.00    +0.065 C 
ATOM     11  C   UNL     1      -2.415  -1.245   0.000  0.00  0.00    +0.173 C 
ATOM     12  C   UNL     1      -2.415  -0.249   0.000  0.00  0.00    +0.044 C 
ATOM     13  C   UNL     1      -1.544   0.249   0.000  0.00  0.00    +0.007 C 
ATOM     14  C   UNL     1      -0.672  -0.249   0.000  0.00  0.00    +0.015 C 
ATOM     15  C   UNL     1      -0.672   0.747   0.000  0.00  0.00    +0.004 C 
ATOM     16  C   UNL     1       1.917   0.249   0.000  0.00  0.00    +0.008 C 
ATOM     17  C   UNL     1       2.866  -0.052   0.000  0.00  0.00    +0.026 C 
ATOM     18  C   UNL     1       3.437   0.773   0.000  0.00  0.00    -0.028 C 
ATOM     19  C   UNL     1       2.866   1.546   0.000  0.00  0.00    +0.008 C 
ENDROOT
BRANCH  19  20
ATOM     20  C   UNL     1       3.214   2.490   0.000  0.00  0.00    +0.169 C 
ATOM     21  C   UNL     1       2.565   3.263   0.000  0.00  0.00    +0.077 C 
ATOM     22  O   UNL     1       4.184   2.687   0.000  0.00  0.00    -0.292 OA
ENDBRANCH  19  20
BRANCH  11  23
ATOM     23  O   UNL     1      -3.287  -1.769   0.000  0.00  0.00    -0.452 OA
BRANCH  23  24
ATOM     24  C   UNL     1      -3.312  -2.765   0.000  0.00  0.00    +0.317 C 
ATOM     25  C   UNL     1      -2.441  -3.263   0.000  0.00  0.00    +0.121 C 
ATOM     26  O   UNL     1      -4.184  -3.263   0.000  0.00  0.00    -0.250 OA
ENDBRANCH  23  24
ENDBRANCH  11  23
TORSDOF 3
ENDMDL
MODEL      370
REMARK  Name = (2E)-3-phenyl-N-[4-(phenylformamido)butyl]prop-2-enamide
REMARK  8 active torsions:
REMARK  status: ('A' for Active; 'I' for Inactive)
REMARK    1  A    between atoms: C_1  and  C_6
REMARK    2  A    between atoms: C_2  and  C_3
REMARK    3  A    between atoms: C_4  and  C_10
REMARK    4  A    between atoms: N_8  and  C_13
REMARK    5  A    between atoms: N_9  and  C_14
REMARK    6  A    between atoms: C_13  and  C_17
REMARK    7  A    between atoms: C_14  and  C_18
REMARK    8  A    between atoms: C_17  and  C_18
REMARK                            x       y       z     vdW  Elec       q    Type
REMARK                         _______ _______ _______ _____ _____    ______ ____
ROOT
ATOM      1  C   UNL     1       0.019   0.476   0.000  0.00  0.00    +0.025 C 
ENDROOT
BRANCH   1   2
ATOM      2  C   UNL     1       0.881   0.984   0.000  0.00  0.00    +0.025 C 
BRANCH   2   3
ATOM      3  C   UNL     1       1.728   0.500   0.000  0.00  0.00    +0.116 C 
BRANCH   3   5
ATOM      4  C   UNL     1       3.465   0.509   0.000  0.00  0.00    +0.265 C 
ATOM      5  N   UNL     1       2.580   1.003   0.000  0.00  0.00    -0.202 NA
ATOM      6  O   UNL     1       3.451  -0.510   0.000  0.00  0.00    -0.268 OA
BRANCH   4   7
ATOM      7  C   UNL     1       4.312   1.027   0.000  0.00  0.00    +0.055 A 
ATOM      8  C   UNL     1       4.303   2.027   0.000  0.00  0.00    +0.005 A 
ATOM      9  C   UNL     1       5.116   2.544   0.000  0.00  0.00    +0.000 A 
ATOM     10  C   UNL     1       6.050   2.075   0.000  0.00  0.00    +0.000 A 
ATOM     11  C   UNL     1       6.050   1.060   0.000  0.00  0.00    +0.000 A 
ATOM     12  C   UNL     1       5.198   0.557   0.000  0.00  0.00    +0.005 A 
ENDBRANCH   4   7
ENDBRANCH   3   5
ENDBRANCH   2   3
ENDBRANCH   1   2
BRANCH   1  13
ATOM     13  C   UNL     1      -0.857   0.969   0.000  0.00  0.00    +0.116 C 
BRANCH  13  14
ATOM     14  N   UNL     1      -1.704   0.452   0.000  0.00  0.00    -0.202 NA
ATOM     15  C   UNL     1      -1.704  -0.534   0.000  0.00  0.00    +0.265 C 
ATOM     16  O   UNL     1      -0.833  -1.041   0.000  0.00  0.00    -0.268 OA
BRANCH  15  17
ATOM     17  C   UNL     1      -2.580  -1.041   0.000  0.00  0.00    +0.059 C 
ATOM     18  C   UNL     1      -3.451  -0.534   0.000  0.00  0.00    +0.005 C 
BRANCH  18  19
ATOM     19  C   UNL     1      -4.327  -1.041   0.000  0.00  0.00    +0.000 A 
ATOM     20  C   UNL     1      -5.174  -0.567   0.000  0.00  0.00    +0.000 A 
ATOM     21  C   UNL     1      -6.050  -1.041   0.000  0.00  0.00    +0.000 A 
ATOM     22  C   UNL     1      -6.050  -2.051   0.000  0.00  0.00    +0.000 A 
ATOM     23  C   UNL     1      -5.174  -2.544   0.000  0.00  0.00    +0.000 A 
ATOM     24  C   UNL     1      -4.327  -2.051   0.000  0.00  0.00    +0.000 A 
ENDBRANCH  18  19
ENDBRANCH  15  17
ENDBRANCH  13  14
ENDBRANCH   1  13
TORSDOF 8
ENDMDL
MODEL      371
REMARK  Name = 4-(7-{[5-({5-[(4,5-dihydroxy-6-methyloxan-2-yl)oxy]-4-hydroxy-6-methyloxan-2-yl}oxy)-4-hydroxy-6-methyloxan-2-yl]oxy}-2,3a-dihydroxy-9a,11a-dimethyl-hexadecahydro-1H-cyclopenta[a]phenanthren-1-yl)-2,5 -dihydrofuran-2-one
REMARK  7 active torsions:
REMARK  status: ('A' for Active; 'I' for Inactive)
REMARK    1  A    between atoms: C_4  and  C_6
REMARK    2  A    between atoms: C_9  and  O_32
REMARK    3  A    between atoms: C_10  and  O_33
REMARK    4  A    between atoms: C_12  and  O_32
REMARK    5  A    between atoms: C_13  and  O_33
REMARK    6  A    between atoms: C_14  and  O_39
REMARK    7  A    between atoms: O_39  and  C_44
REMARK                            x       y       z     vdW  Elec       q    Type
REMARK                         _______ _______ _______ _____ _____    ______ ____
ROOT
ATOM      1  O   UNL     1       1.022   1.138   0.000  0.00  0.00    -0.333 OA
ENDROOT
BRANCH   1  16
ATOM      2  C   UNL     1       4.770   2.593   0.000  0.00  0.00    +0.126 C 
ATOM      3  O   UNL     1       4.752   1.370   0.000  0.00  0.00    -0.226 OA
ATOM      4  C   UNL     1       5.439   2.352   0.000  0.00  0.00    +0.063 C 
ATOM      5  C   UNL     1       5.868   2.959   0.000  0.00  0.00    +0.158 C 
ATOM      6  C   UNL     1       5.439   3.512   0.000  0.00  0.00    +0.055 C 
ATOM      7  O   UNL     1       6.769   2.932   0.000  0.00  0.00    -0.223 OA
ATOM      8  C   UNL     1       4.154   2.245   0.000  0.00  0.00    +0.038 C 
ATOM      9  C   UNL     1       4.154   1.495   0.000  0.00  0.00    -0.002 C 
ATOM     10  C   UNL     1       3.512   1.174   0.000  0.00  0.00    -0.004 C 
ATOM     11  C   UNL     1       2.914   1.495   0.000  0.00  0.00    +0.015 C 
ATOM     12  C   UNL     1       2.914   2.245   0.000  0.00  0.00    -0.007 C 
ATOM     13  C   UNL     1       2.869   3.423   0.000  0.00  0.00    -0.001 C 
ATOM     14  C   UNL     1       2.227   2.593   0.000  0.00  0.00    +0.002 C 
ATOM     15  C   UNL     1       1.647   2.245   0.000  0.00  0.00    +0.030 C 
ATOM     16  C   UNL     1       1.647   1.495   0.000  0.00  0.00    +0.117 C 
ATOM     17  C   UNL     1       2.227   1.174   0.000  0.00  0.00    +0.026 C 
ATOM     18  C   UNL     1       3.512   2.593   0.000  0.00  0.00    +0.011 C 
ATOM     19  C   UNL     1       3.512   3.342   0.000  0.00  0.00    -0.004 C 
ATOM     20  C   UNL     1       4.154   3.682   0.000  0.00  0.00    +0.002 C 
ATOM     21  C   UNL     1       4.770   3.342   0.000  0.00  0.00    +0.032 C 
ATOM     22  C   UNL     1       4.708   4.628   0.000  0.00  0.00    +0.003 C 
BRANCH   6  23
ATOM     23  C   UNL     1       5.734   4.565   0.000  0.00  0.00    +0.008 C 
ATOM     24  C   UNL     1       6.725   4.922   0.000  0.00  0.00    +0.231 C 
ATOM     25  O   UNL     1       6.725   5.975   0.000  0.00  0.00    -0.441 OA
ATOM     26  C   UNL     1       5.716   6.279   0.000  0.00  0.00    +0.341 C 
ATOM     27  O   UNL     1       5.350   7.323   0.000  0.00  0.00    -0.245 OA
ATOM     28  C   UNL     1       5.074   5.350   0.000  0.00  0.00    +0.077 C 
ENDBRANCH   6  23
ENDBRANCH   1  16
BRANCH   1  29
ATOM     29  C   UNL     1       1.022   0.130   0.000  0.00  0.00    +0.238 C 
ATOM     30  C   UNL     1       0.406  -0.647   0.000  0.00  0.00    +0.097 C 
ATOM     31  C   UNL     1      -0.799  -0.647   0.000  0.00  0.00    +0.186 C 
ATOM     32  O   UNL     1      -0.799  -1.352   0.000  0.00  0.00    -0.220 OA
ATOM     33  C   UNL     1      -1.397   0.130   0.000  0.00  0.00    +0.175 C 
ATOM     34  C   UNL     1      -0.799   0.942   0.000  0.00  0.00    +0.147 C 
ATOM     35  C   UNL     1      -0.817   2.227   0.000  0.00  0.00    +0.035 C 
ATOM     36  O   UNL     1       0.406   0.942   0.000  0.00  0.00    -0.330 OA
BRANCH  33  37
ATOM     37  O   UNL     1      -1.397  -0.941   0.000  0.00  0.00    -0.328 OA
BRANCH  37  38
ATOM     38  C   UNL     1      -1.397  -1.905   0.000  0.00  0.00    +0.238 C 
ATOM     39  C   UNL     1      -2.057  -2.717   0.000  0.00  0.00    +0.097 C 
ATOM     40  C   UNL     1      -3.369  -2.717   0.000  0.00  0.00    +0.186 C 
ATOM     41  O   UNL     1      -3.342  -3.619   0.000  0.00  0.00    -0.220 OA
ATOM     42  C   UNL     1      -3.985  -1.905   0.000  0.00  0.00    +0.175 C 
ATOM     43  C   UNL     1      -3.369  -1.031   0.000  0.00  0.00    +0.147 C 
ATOM     44  C   UNL     1      -3.342   0.174   0.000  0.00  0.00    +0.035 C 
ATOM     45  O   UNL     1      -2.057  -1.031   0.000  0.00  0.00    -0.330 OA
BRANCH  42  46
ATOM     46  O   UNL     1      -3.985  -3.405   0.000  0.00  0.00    -0.328 OA
BRANCH  46  47
ATOM     47  C   UNL     1      -3.985  -5.100   0.000  0.00  0.00    +0.238 C 
ATOM     48  C   UNL     1      -4.654  -6.019   0.000  0.00  0.00    +0.097 C 
ATOM     49  C   UNL     1      -6.064  -6.019   0.000  0.00  0.00    +0.190 C 
ATOM     50  O   UNL     1      -6.064  -7.323   0.000  0.00  0.00    -0.220 OA
ATOM     51  C   UNL     1      -6.725  -5.100   0.000  0.00  0.00    +0.209 C 
ATOM     52  C   UNL     1      -6.064  -4.154   0.000  0.00  0.00    +0.151 C 
ATOM     53  C   UNL     1      -6.064  -3.066   0.000  0.00  0.00    +0.035 C 
ATOM     54  O   UNL     1      -6.769  -6.662   0.000  0.00  0.00    -0.218 OA
ATOM     55  O   UNL     1      -4.654  -4.154   0.000  0.00  0.00    -0.330 OA
ENDBRANCH  46  47
ENDBRANCH  42  46
ENDBRANCH  37  38
ENDBRANCH  33  37
ENDBRANCH   1  29
TORSDOF 7
ENDMDL
MODEL      372
REMARK  Name = 6-({6-[(6-{[3a-hydroxy-9a,11a-dimethyl-1-(5-oxo-2,5-dihydrofuran-3-yl)-hexadecahydro-1H-cyclopenta[a]phenanthren-7-yl]oxy}-4-hydroxy-2-methyloxan-3-yl)oxy]-4-hydroxy-2-methyloxan-3-yl}oxy)-2-methyl-3- {[3,4,5-trihydroxy-6-(hydroxymethyl)oxan-2-yl]oxy}oxan-4-yl acetate
REMARK  12 active torsions:
REMARK  status: ('A' for Active; 'I' for Inactive)
REMARK    1  A    between atoms: C_3  and  O_12
REMARK    2  A    between atoms: C_10  and  O_12
REMARK    3  A    between atoms: C_11  and  C_13
REMARK    4  A    between atoms: C_14  and  O_41
REMARK    5  A    between atoms: C_16  and  O_39
REMARK    6  A    between atoms: C_17  and  O_38
REMARK    7  A    between atoms: C_18  and  C_63
REMARK    8  A    between atoms: C_19  and  O_38
REMARK    9  A    between atoms: C_20  and  O_39
REMARK   10  A    between atoms: C_21  and  O_48
REMARK   11  A    between atoms: O_41  and  C_46
REMARK   12  A    between atoms: O_48  and  C_52
REMARK                            x       y       z     vdW  Elec       q    Type
REMARK                         _______ _______ _______ _____ _____    ______ ____
ROOT
ATOM      1  C   UNL     1       2.597   1.442   0.000  0.00  0.00    +0.238 C 
ATOM      2  C   UNL     1       2.044   0.743   0.000  0.00  0.00    +0.097 C 
ATOM      3  C   UNL     1       0.947   0.743   0.000  0.00  0.00    +0.186 C 
ATOM      4  O   UNL     1       1.014  -0.374   0.000  0.00  0.00    -0.220 OA
ATOM      5  C   UNL     1       0.413   1.442   0.000  0.00  0.00    +0.175 C 
ATOM      6  C   UNL     1       0.947   2.190   0.000  0.00  0.00    +0.147 C 
ATOM      7  C   UNL     1       0.918   3.355   0.000  0.00  0.00    +0.035 C 
ATOM      8  O   UNL     1       2.044   2.190   0.000  0.00  0.00    -0.330 OA
ENDROOT
BRANCH   1   9
ATOM      9  O   UNL     1       2.597   2.355   0.000  0.00  0.00    -0.333 OA
BRANCH   9  23
ATOM     10  C   UNL     1       6.025   3.685   0.000  0.00  0.00    +0.123 C 
ATOM     11  O   UNL     1       6.025   1.656   0.000  0.00  0.00    -0.226 OA
ATOM     12  C   UNL     1       6.628   3.491   0.000  0.00  0.00    +0.030 C 
ATOM     13  C   UNL     1       7.026   4.035   0.000  0.00  0.00    +0.007 C 
ATOM     14  C   UNL     1       6.628   4.550   0.000  0.00  0.00    +0.024 C 
ATOM     15  C   UNL     1       5.462   3.374   0.000  0.00  0.00    +0.037 C 
ATOM     16  C   UNL     1       5.462   2.704   0.000  0.00  0.00    -0.002 C 
ATOM     17  C   UNL     1       4.880   2.403   0.000  0.00  0.00    -0.004 C 
ATOM     18  C   UNL     1       4.326   2.704   0.000  0.00  0.00    +0.015 C 
ATOM     19  C   UNL     1       4.326   3.374   0.000  0.00  0.00    -0.007 C 
ATOM     20  C   UNL     1       4.258   4.637   0.000  0.00  0.00    -0.001 C 
ATOM     21  C   UNL     1       3.714   3.685   0.000  0.00  0.00    +0.002 C 
ATOM     22  C   UNL     1       3.180   3.374   0.000  0.00  0.00    +0.030 C 
ATOM     23  C   UNL     1       3.180   2.704   0.000  0.00  0.00    +0.117 C 
ATOM     24  C   UNL     1       3.714   2.403   0.000  0.00  0.00    +0.026 C 
ATOM     25  C   UNL     1       4.880   3.685   0.000  0.00  0.00    +0.011 C 
ATOM     26  C   UNL     1       4.880   4.384   0.000  0.00  0.00    -0.004 C 
ATOM     27  C   UNL     1       5.462   4.685   0.000  0.00  0.00    +0.002 C 
ATOM     28  C   UNL     1       6.025   4.384   0.000  0.00  0.00    +0.029 C 
ATOM     29  C   UNL     1       5.977   5.821   0.000  0.00  0.00    +0.003 C 
BRANCH  14  30
ATOM     30  C   UNL     1       6.909   5.472   0.000  0.00  0.00    +0.005 C 
ATOM     31  C   UNL     1       7.822   5.802   0.000  0.00  0.00    +0.231 C 
ATOM     32  O   UNL     1       7.822   6.753   0.000  0.00  0.00    -0.441 OA
ATOM     33  C   UNL     1       6.889   7.064   0.000  0.00  0.00    +0.341 C 
ATOM     34  O   UNL     1       6.559   8.016   0.000  0.00  0.00    -0.245 OA
ATOM     35  C   UNL     1       6.307   6.200   0.000  0.00  0.00    +0.077 C 
ENDBRANCH  14  30
ENDBRANCH   9  23
ENDBRANCH   1   9
BRANCH   5  36
ATOM     36  O   UNL     1       0.413   0.461   0.000  0.00  0.00    -0.328 OA
BRANCH  36  37
ATOM     37  C   UNL     1       0.413  -0.423   0.000  0.00  0.00    +0.238 C 
ATOM     38  C   UNL     1      -0.218  -1.170   0.000  0.00  0.00    +0.097 C 
ATOM     39  C   UNL     1      -1.384  -1.170   0.000  0.00  0.00    +0.186 C 
ATOM     40  O   UNL     1      -1.384  -1.986   0.000  0.00  0.00    -0.220 OA
ATOM     41  C   UNL     1      -1.966  -0.423   0.000  0.00  0.00    +0.175 C 
ATOM     42  C   UNL     1      -1.384   0.393   0.000  0.00  0.00    +0.147 C 
ATOM     43  C   UNL     1      -1.384   1.490   0.000  0.00  0.00    +0.035 C 
ATOM     44  O   UNL     1      -0.218   0.393   0.000  0.00  0.00    -0.330 OA
BRANCH  41  45
ATOM     45  O   UNL     1      -1.966  -1.792   0.000  0.00  0.00    -0.328 OA
BRANCH  45  46
ATOM     46  C   UNL     1      -1.966  -3.307   0.000  0.00  0.00    +0.239 C 
ATOM     47  C   UNL     1      -2.549  -4.151   0.000  0.00  0.00    +0.108 C 
ATOM     48  C   UNL     1      -3.860  -4.151   0.000  0.00  0.00    +0.203 C 
ATOM     49  C   UNL     1      -4.462  -3.307   0.000  0.00  0.00    +0.185 C 
ATOM     50  C   UNL     1      -3.860  -2.452   0.000  0.00  0.00    +0.149 C 
ATOM     51  C   UNL     1      -3.928  -1.141   0.000  0.00  0.00    +0.035 C 
ATOM     52  O   UNL     1      -2.549  -2.452   0.000  0.00  0.00    -0.330 OA
BRANCH  48  53
ATOM     53  O   UNL     1      -3.860  -5.365   0.000  0.00  0.00    -0.449 OA
BRANCH  53  54
ATOM     54  C   UNL     1      -2.996  -5.850   0.000  0.00  0.00    +0.318 C 
ATOM     55  C   UNL     1      -2.151  -5.365   0.000  0.00  0.00    +0.121 C 
ATOM     56  O   UNL     1      -2.996  -6.851   0.000  0.00  0.00    -0.250 OA
ENDBRANCH  53  54
ENDBRANCH  48  53
BRANCH  49  57
ATOM     57  O   UNL     1      -4.462  -4.753   0.000  0.00  0.00    -0.325 OA
BRANCH  57  58
ATOM     58  C   UNL     1      -4.462  -6.219   0.000  0.00  0.00    +0.270 C 
ATOM     59  O   UNL     1      -5.181  -5.268   0.000  0.00  0.00    -0.326 OA
ATOM     60  C   UNL     1      -6.608  -5.268   0.000  0.00  0.00    +0.183 C 
ATOM     61  C   UNL     1      -7.278  -6.219   0.000  0.00  0.00    +0.214 C 
ATOM     62  C   UNL     1      -6.608  -7.181   0.000  0.00  0.00    +0.220 C 
ATOM     63  O   UNL     1      -6.540  -6.103   0.000  0.00  0.00    -0.217 OA
ATOM     64  O   UNL     1      -7.259  -7.734   0.000  0.00  0.00    -0.218 OA
ATOM     65  C   UNL     1      -5.181  -7.181   0.000  0.00  0.00    +0.241 C 
ATOM     66  O   UNL     1      -5.181  -8.016   0.000  0.00  0.00    -0.215 OA
BRANCH  60  67
ATOM     67  C   UNL     1      -6.628  -4.054   0.000  0.00  0.00    +0.214 C 
ATOM     68  O   UNL     1      -7.822  -3.287   0.000  0.00  0.00    -0.218 OA
ENDBRANCH  60  67
ENDBRANCH  57  58
ENDBRANCH  49  57
ENDBRANCH  45  46
ENDBRANCH  41  45
ENDBRANCH  36  37
ENDBRANCH   5  36
TORSDOF 12
ENDMDL
MODEL      373
REMARK  Name = 3a-(hydroxymethyl)-5a,5b,8,8,11a-pentamethyl-1-(prop-1-en-2-yl)-icosahydro-1H-cyclopenta[a]chrysen-9-ol
REMARK  2 active torsions:
REMARK  status: ('A' for Active; 'I' for Inactive)
REMARK    1  A    between atoms: C_9  and  C_17
REMARK    2  A    between atoms: C_10  and  C_30
REMARK                            x       y       z     vdW  Elec       q    Type
REMARK                         _______ _______ _______ _____ _____    ______ ____
ROOT
ATOM      1  C   UNL     1       0.579  -0.604   0.000  0.00  0.00    +0.000 C 
ATOM      2  C   UNL     1       0.584  -1.644   0.000  0.00  0.00    +0.000 C 
ATOM      3  C   UNL     1       1.545  -1.259   0.000  0.00  0.00    +0.000 C 
ATOM      4  C   UNL     1       2.507  -0.710   0.000  0.00  0.00    +0.003 C 
ATOM      5  C   UNL     1       2.507   0.403   0.000  0.00  0.00    +0.031 C 
ATOM      6  C   UNL     1       1.545   0.953   0.000  0.00  0.00    +0.006 C 
ATOM      7  C   UNL     1       1.820   1.923   0.000  0.00  0.00    +0.018 C 
ATOM      8  C   UNL     1       2.777   2.019   0.000  0.00  0.00    +0.004 C 
ATOM      9  C   UNL     1       3.207   1.126   0.000  0.00  0.00    +0.003 C 
ATOM     10  C   UNL     1       0.579   0.275   0.000  0.00  0.00    +0.000 C 
ATOM     11  C   UNL     1      -0.185   0.742   0.000  0.00  0.00    +0.000 C 
ATOM     12  C   UNL     1      -0.959   0.275   0.000  0.00  0.00    +0.000 C 
ATOM     13  C   UNL     1      -0.959  -0.604   0.000  0.00  0.00    +0.000 C 
ATOM     14  C   UNL     1      -1.710  -1.039   0.000  0.00  0.00    +0.000 C 
ATOM     15  C   UNL     1      -1.710  -2.028   0.000  0.00  0.00    +0.002 C 
ATOM     16  C   UNL     1      -2.534  -2.509   0.000  0.00  0.00    +0.028 C 
ATOM     17  C   UNL     1      -3.070  -3.599   0.000  0.00  0.00    +0.003 C 
ATOM     18  C   UNL     1      -1.852  -3.443   0.000  0.00  0.00    +0.003 C 
ATOM     19  C   UNL     1      -3.304  -2.028   0.000  0.00  0.00    +0.152 C 
ATOM     20  C   UNL     1      -3.304  -1.039   0.000  0.00  0.00    +0.033 C 
ATOM     21  O   UNL     1      -4.457  -2.743   0.000  0.00  0.00    -0.223 OA
ATOM     22  C   UNL     1      -0.959  -2.509   0.000  0.00  0.00    +0.000 C 
ATOM     23  C   UNL     1      -0.185  -2.028   0.000  0.00  0.00    +0.000 C 
ATOM     24  C   UNL     1      -1.710  -0.137   0.000  0.00  0.00    +0.000 C 
ATOM     25  C   UNL     1      -2.534  -0.604   0.000  0.00  0.00    +0.003 C 
ATOM     26  C   UNL     1      -0.185  -1.039   0.000  0.00  0.00    +0.000 C 
ATOM     27  C   UNL     1      -0.185  -0.165   0.000  0.00  0.00    +0.000 C 
ENDROOT
BRANCH   7  28
ATOM     28  C   UNL     1       1.202   2.692   0.000  0.00  0.00    -0.044 C 
ATOM     29  C   UNL     1       0.249   2.532   0.000  0.00  0.00    +0.026 C 
ATOM     30  C   UNL     1       1.554   3.599   0.000  0.00  0.00    -0.009 C 
ENDBRANCH   7  28
BRANCH   5  31
ATOM     31  C   UNL     1       3.564  -0.233   0.000  0.00  0.00    +0.182 C 
ATOM     32  O   UNL     1       4.457   0.247   0.000  0.00  0.00    -0.220 OA
ENDBRANCH   5  31
TORSDOF 2
ENDMDL
MODEL      374
REMARK  Name = 3-methoxy-2-(propan-2-yl)-7H-furo[3,2-g]chromen-7-one
REMARK  2 active torsions:
REMARK  status: ('A' for Active; 'I' for Inactive)
REMARK    1  A    between atoms: C_1  and  C_15
REMARK    2  A    between atoms: C_3  and  O_16
REMARK                            x       y       z     vdW  Elec       q    Type
REMARK                         _______ _______ _______ _____ _____    ______ ____
ROOT
ATOM      1  C   UNL     1      -2.182  -0.729   0.000  0.00  0.00    +0.156 A 
ATOM      2  O   UNL     1      -1.598  -1.562   0.000  0.00  0.00    -0.455 OA
ATOM      3  C   UNL     1      -0.668  -1.242   0.000  0.00  0.00    +0.151 A 
ATOM      4  C   UNL     1      -0.668  -0.241   0.000  0.00  0.00    +0.071 A 
ATOM      5  C   UNL     1       0.185   0.267   0.000  0.00  0.00    +0.009 A 
ATOM      6  C   UNL     1       1.064  -0.241   0.000  0.00  0.00    +0.035 A 
ATOM      7  C   UNL     1       1.064  -1.242   0.000  0.00  0.00    +0.152 A 
ATOM      8  O   UNL     1       1.938  -1.755   0.000  0.00  0.00    -0.421 OA
ATOM      9  C   UNL     1       2.791  -1.242   0.000  0.00  0.00    +0.346 A 
ATOM     10  C   UNL     1       2.791  -0.241   0.000  0.00  0.00    +0.082 A 
ATOM     11  O   UNL     1       3.670  -1.755   0.000  0.00  0.00    -0.244 OA
ATOM     12  C   UNL     1       1.938   0.267   0.000  0.00  0.00    +0.010 A 
ATOM     13  C   UNL     1       0.185  -1.755   0.000  0.00  0.00    +0.075 A 
ATOM     14  C   UNL     1      -1.598   0.074   0.000  0.00  0.00    +0.172 A 
ENDROOT
BRANCH   1  15
ATOM     15  C   UNL     1      -3.183  -0.709   0.000  0.00  0.00    +0.061 C 
ATOM     16  C   UNL     1      -3.670  -1.583   0.000  0.00  0.00    +0.008 C 
ATOM     17  C   UNL     1      -3.670   0.145   0.000  0.00  0.00    +0.008 C 
ENDBRANCH   1  15
BRANCH  14  18
ATOM     18  O   UNL     1      -1.913   1.024   0.000  0.00  0.00    -0.469 OA
ATOM     19  C   UNL     1      -1.252   1.755   0.000  0.00  0.00    +0.253 C 
ENDBRANCH  14  18
TORSDOF 2
ENDMDL
