
  -ISIS-  -- StrEd -- 

 39 43  0  0  0  0  0  0  0  0999 V2000
    0.0032    1.2398    0.0000 C   0  0  0  0  0  0  0  0  0  0  0  0
    0.9230    1.5394    0.0000 C   0  0  0  0  0  0  0  0  0  0  0  0
    0.0032    0.2452    0.0000 C   0  0  0  0  0  0  0  0  0  0  0  0
   -2.5917   -0.2317    0.0000 C   0  0  0  0  0  0  0  0  0  0  0  0
   -1.7609    0.2452    0.0000 C   0  0  0  0  0  0  0  0  0  0  0  0
   -0.8752   -0.2317    0.0000 C   0  0  0  0  0  0  0  0  0  0  0  0
    1.5223    0.7832    0.0000 C   0  0  0  0  0  0  0  0  0  0  0  0
    0.9570   -0.0139    0.0000 C   0  0  0  0  0  0  0  0  0  0  0  0
   -2.5917   -1.2942    0.0000 C   0  0  0  0  0  0  0  0  0  0  0  0
   -0.8752    1.7641    0.0000 C   0  0  0  0  0  0  0  0  0  0  0  0
    3.0619   -0.0342    0.0000 C   0  0  0  0  0  0  0  0  0  0  0  0
    2.5577    0.7832    0.0000 O   0  0  0  0  0  0  0  0  0  0  0  0
   -1.7609    1.2398    0.0000 C   0  0  0  0  0  0  0  0  0  0  0  0
    0.9230    2.4383    0.0000 C   0  0  0  0  0  0  0  0  0  0  0  0
   -3.4773    0.2452    0.0000 C   0  0  0  0  0  0  0  0  0  0  0  0
   -0.8752   -1.2942    0.0000 C   0  0  0  0  0  0  0  0  0  0  0  0
   -5.2416   -2.7928    0.0000 C   0  0  0  0  0  0  0  0  0  0  0  0
   -3.4773   -1.7643    0.0000 C   0  0  0  0  0  0  0  0  0  0  0  0
   -1.7609   -1.7643    0.0000 C   0  0  0  0  0  0  0  0  0  0  0  0
   -5.2416   -1.8119    0.0000 O   0  0  0  0  0  0  0  0  0  0  0  0
    2.6053   -0.9333    0.0000 O   0  0  0  0  0  0  0  0  0  0  0  0
   -4.3764   -1.2942    0.0000 C   0  0  0  0  0  0  0  0  0  0  0  0
   -4.4242   -3.3991    0.0000 O   0  0  0  0  0  0  0  0  0  0  0  0
    2.0197    1.9140    0.0000 O   0  0  0  0  0  0  0  0  0  0  0  0
    1.8221    2.8744    0.0000 O   0  0  0  0  0  0  0  0  0  0  0  0
    4.0424   -0.0342    0.0000 C   0  0  0  0  0  0  0  0  0  0  0  0
    4.5537    0.8173    0.0000 C   0  0  0  0  0  0  0  0  0  0  0  0
    0.0032    2.2749    0.0000 C   0  0  0  0  0  0  0  0  0  0  0  0
   -4.3764   -0.2317    0.0000 C   0  0  0  0  0  0  0  0  0  0  0  0
    4.0424    1.6686    0.0000 C   0  0  0  0  0  0  0  0  0  0  0  0
   -2.5917    0.7221    0.0000 C   0  0  0  0  0  0  0  0  0  0  0  0
    4.5537    2.5476    0.0000 C   0  0  0  0  0  0  0  0  0  0  0  0
    4.0631    3.3991    0.0000 I   0  0  0  0  0  0  0  0  0  0  0  0
    6.0726    1.6686    0.0000 C   0  0  0  0  0  0  0  0  0  0  0  0
   -6.0726   -3.2695    0.0000 C   0  0  0  0  0  0  0  0  0  0  0  0
    0.0579    2.9086    0.0000 C   0  0  0  0  0  0  0  0  0  0  0  0
    5.5479    0.8173    0.0000 C   0  0  0  0  0  0  0  0  0  0  0  0
    5.5617    2.5476    0.0000 C   0  0  0  0  0  0  0  0  0  0  0  0
   -2.6258   -2.2207    0.0000 H   0  0  0  0  0  0  0  0  0  0  0  0
  2  1  1  0  0  0  0
  3  1  1  0  0  0  0
  5  4  1  0  0  0  0
  5 13  1  0  0  0  0
  6  3  1  0  0  0  0
  7  2  1  0  0  0  0
  8  3  1  0  0  0  0
  9  4  1  0  0  0  0
 10  1  1  0  0  0  0
 11 12  1  0  0  0  0
 12  7  1  0  0  0  0
 13 10  1  0  0  0  0
 14  2  1  0  0  0  0
 15  4  1  0  0  0  0
 16  6  1  0  0  0  0
 17 20  1  0  0  0  0
  9 18  1  0  0  0  0
 19 16  1  0  0  0  0
 22 20  1  0  0  0  0
 21 11  2  0  0  0  0
 22 29  1  0  0  0  0
 23 17  2  0  0  0  0
 24  2  1  0  0  0  0
 25 14  2  0  0  0  0
 26 11  1  0  0  0  0
 27 26  1  0  0  0  0
  1 28  1  0  0  0  0
 29 15  1  0  0  0  0
 30 27  1  0  0  0  0
  4 31  1  0  0  0  0
 32 30  2  0  0  0  0
 33 32  1  0  0  0  0
 34 37  1  0  0  0  0
 35 17  1  0  0  0  0
 36 14  1  0  0  0  0
 37 27  2  0  0  0  0
 38 34  2  0  0  0  0
 39  9  1  0  0  0  0
  8  7  1  0  0  0  0
  6  5  1  0  0  0  0
 19  9  1  0  0  0  0
 22 18  1  0  0  0  0
 32 38  1  0  0  0  0
M  END
>  <IDNUMBER> (N017-0005)
N017-0005

>  <available> (N017-0005)
31

>  <H_acceptor> (N017-0005)
7

>  <H_donor> (N017-0005)
1

>  <B_rotN> (N017-0005)
8

>  <N_O> (N017-0005)
6

>  <logP> (N017-0005)
5.07

>  <logD> (N017-0005)
5.65

>  <logSw> (N017-0005)
-7.06

>  <PSA> (N017-0005)
89.9

>  <Chiral_centers> (N017-0005)
9

>  <Name> (N017-0005)
1-acetyl-7-(acetyloxy)-1-hydroxy-9a,11a-dimethyl-hexadecahydro-1H-cyclopenta[a]phenanthren-2-yl 2-(3-iodophenyl)acetate

>  <Smile> (N017-0005)
c1c(cc(CC(OC2C(C3(C)CCC4C5(C)C(CCC4C3C2)CC(OC(=O)C)CC5)(C(=O)C)O)=O)cc1)I

>  <Collection> (N017-0005)
DC

>  <InChI Key> (N017-0005)
QOIJGUZBBFUJSQ-UHFFFAOYSA-N

>  <PERCENTSP3> (N017-0005)
71

$$$$

  -ISIS-  -- StrEd -- 

 79 88  0  0  0  0  0  0  0  0999 V2000
    1.7196    2.5546    0.0000 C   0  0  0  0  0  0  0  0  0  0  0  0
    0.9731    1.2458    0.0000 C   0  0  1  0  0  0  0  0  0  0  0  0
    1.7196    1.6655    0.0000 C   0  0  2  0  0  0  0  0  0  0  0  0
   -0.5369    1.2458    0.0000 C   0  0  2  0  0  0  0  0  0  0  0  0
   -3.6154   -2.1349    0.0000 C   0  0  0  0  0  0  0  0  0  0  0  0
   -5.3856   -4.1483    0.0000 C   0  0  0  0  0  0  0  0  0  0  0  0
   -4.8068   -0.5495    0.0000 C   0  0  0  0  0  0  0  0  0  0  0  0
    0.2266    1.6655    0.0000 C   0  0  0  0  0  0  0  0  0  0  0  0
   -3.5989   -4.9788    0.0000 C   0  0  0  0  0  0  0  0  0  0  0  0
   -2.9697   -1.3717    0.0000 C   0  0  0  0  0  0  0  0  0  0  0  0
   -4.2195   -4.1483    0.0000 O   0  0  0  0  0  0  0  0  0  0  0  0
   -3.6154   -0.5495    0.0000 O   0  0  0  0  0  0  0  0  0  0  0  0
    0.9731    3.0158    0.0000 C   0  0  0  0  0  0  0  0  0  0  0  0
   -4.2195   -5.8010    0.0000 C   0  0  0  0  0  0  0  0  0  0  0  0
    0.2266    2.5546    0.0000 C   0  0  0  0  0  0  0  0  0  0  0  0
   -4.8068   -2.1349    0.0000 C   0  0  0  0  0  0  0  0  0  0  0  0
   -5.4528   -1.3717    0.0000 C   0  0  0  0  0  0  0  0  0  0  0  0
   -6.0737   -4.9788    0.0000 C   0  0  0  0  0  0  0  0  0  0  0  0
   -0.5369    0.2810    0.0000 C   0  0  0  0  0  0  0  0  0  0  0  0
    2.6844    3.2171    0.0000 C   0  0  0  0  0  0  0  0  0  0  0  0
   -5.3856   -5.8010    0.0000 C   0  0  0  0  0  0  0  0  0  0  0  0
   -3.5989   -3.5024    0.0000 O   0  0  0  0  0  0  0  0  0  0  0  0
   -1.3426   -0.2056    0.0000 C   0  0  1  0  0  0  0  0  0  0  0  0
    3.6322    4.8279    0.0000 C   0  0  1  0  0  0  0  0  0  0  0  0
   -4.8068   -0.0461    0.0000 C   0  0  0  0  0  0  0  0  0  0  0  0
   -5.3856   -3.6282    0.0000 C   0  0  0  0  0  0  0  0  0  0  0  0
    2.6844    4.3078    0.0000 C   0  0  0  0  0  0  0  0  0  0  0  0
    3.6322    2.6719    0.0000 C   0  0  1  0  0  0  0  0  0  0  0  0
   -2.9697   -0.2056    0.0000 O   0  0  0  0  0  0  0  0  0  0  0  0
   -2.1056    0.2810    0.0000 C   0  0  0  0  0  0  0  0  0  0  0  0
    4.5384    5.4568    0.0000 C   0  0  0  0  0  0  0  0  0  0  0  0
    0.9731    0.2810    0.0000 C   0  0  0  0  0  0  0  0  0  0  0  0
   -1.3426    1.6655    0.0000 C   0  0  0  0  0  0  0  0  0  0  0  0
    2.6844    1.0275    0.0000 C   0  0  0  0  0  0  0  0  0  0  0  0
    0.2266   -0.2056    0.0000 C   0  0  0  0  0  0  0  0  0  0  0  0
   -5.3102    0.2221    0.0000 O   0  0  0  0  0  0  0  0  0  0  0  0
   -6.1153   -3.2421    0.0000 O   0  0  0  0  0  0  0  0  0  0  0  0
    5.6034    4.8279    0.0000 O   0  0  0  0  0  0  0  0  0  0  0  0
   -0.7214    3.0998    0.0000 O   0  0  0  0  0  0  0  0  0  0  0  0
    3.6322    1.5647    0.0000 C   0  0  0  0  0  0  0  0  0  0  0  0
   -2.1056    1.2458    0.0000 C   0  0  0  0  0  0  0  0  0  0  0  0
    4.5802    4.3078    0.0000 C   0  0  0  0  0  0  0  0  0  0  0  0
    4.5802    3.2171    0.0000 C   0  0  0  0  0  0  0  0  0  0  0  0
   -4.2027    0.3228    0.0000 O   0  0  0  0  0  0  0  0  0  0  0  0
   -4.7650   -3.0411    0.0000 O   0  0  0  0  0  0  0  0  0  0  0  0
    4.5384    6.6229    0.0000 O   0  0  0  0  0  0  0  0  0  0  0  0
   -4.2195   -6.6229    0.0000 O   0  0  0  0  0  0  0  0  0  0  0  0
   -6.0737   -6.0191    0.0000 O   0  0  0  0  0  0  0  0  0  0  0  0
   -5.4275   -2.2944    0.0000 O   0  0  0  0  0  0  0  0  0  0  0  0
   -4.8068   -1.3130    0.0000 O   0  0  0  0  0  0  0  0  0  0  0  0
   -5.3856   -4.9788    0.0000 O   0  0  0  0  0  0  0  0  0  0  0  0
    0.9731    2.0931    0.0000 C   0  0  0  0  0  0  0  0  0  0  0  0
   -0.5369    2.1520    0.0000 C   0  0  0  0  0  0  0  0  0  0  0  0
    1.7364    0.6417    0.0000 C   0  0  0  0  0  0  0  0  0  0  0  0
   -5.3102    1.1872    0.0000 C   0  0  0  0  0  0  0  0  0  0  0  0
   -7.0972   -3.2421    0.0000 C   0  0  0  0  0  0  0  0  0  0  0  0
    6.4513    5.3731    0.0000 C   0  0  0  0  0  0  0  0  0  0  0  0
   -0.6796   -1.1117    0.0000 C   0  0  0  0  0  0  0  0  0  0  0  0
   -1.8875   -1.2877    0.0000 C   0  0  0  0  0  0  0  0  0  0  0  0
   -7.6003   -2.3952    0.0000 C   0  0  0  0  0  0  0  0  0  0  0  0
   -4.4461    1.6487    0.0000 C   0  0  0  0  0  0  0  0  0  0  0  0
    7.3318    4.9284    0.0000 C   0  0  0  0  0  0  0  0  0  0  0  0
    2.6844    5.4318    0.0000 C   0  0  0  0  0  0  0  0  0  0  0  0
    4.6978    2.0342    0.0000 C   0  0  0  0  0  0  0  0  0  0  0  0
   -7.1223   -1.5308    0.0000 C   0  0  0  0  0  0  0  0  0  0  0  0
   -3.5989    1.1283    0.0000 C   0  0  0  0  0  0  0  0  0  0  0  0
   -4.4461    2.6551    0.0000 C   0  0  0  0  0  0  0  0  0  0  0  0
   -8.6070   -2.4202    0.0000 C   0  0  0  0  0  0  0  0  0  0  0  0
    7.3737    3.9468    0.0000 C   0  0  0  0  0  0  0  0  0  0  0  0
    8.1623    5.4739    0.0000 C   0  0  0  0  0  0  0  0  0  0  0  0
   -9.1103   -1.5559    0.0000 C   0  0  0  0  0  0  0  0  0  0  0  0
   -7.6003   -0.6502    0.0000 C   0  0  0  0  0  0  0  0  0  0  0  0
   -2.6930    1.5898    0.0000 C   0  0  0  0  0  0  0  0  0  0  0  0
    8.2631    3.4773    0.0000 C   0  0  0  0  0  0  0  0  0  0  0  0
    9.0434    5.0124    0.0000 C   0  0  0  0  0  0  0  0  0  0  0  0
   -3.5402    3.1416    0.0000 C   0  0  0  0  0  0  0  0  0  0  0  0
    9.1103    4.0475    0.0000 C   0  0  0  0  0  0  0  0  0  0  0  0
   -2.6679    2.6130    0.0000 C   0  0  0  0  0  0  0  0  0  0  0  0
   -8.6320   -0.6668    0.0000 C   0  0  0  0  0  0  0  0  0  0  0  0
  2  3  1  0  0  0  0
  3  1  1  0  0  0  0
  8  4  1  0  0  0  0
  5 10  1  0  0  0  0
  6 11  1  0  0  0  0
  7 12  1  0  0  0  0
  8 15  1  0  0  0  0
  9 22  1  0  0  0  0
 10 29  1  0  0  0  0
 11  9  1  0  0  0  0
 12 10  1  0  0  0  0
 13  1  2  0  0  0  0
 14  9  1  0  0  0  0
 15 13  1  0  0  0  0
 16  5  1  0  0  0  0
 17  7  1  0  0  0  0
 18 21  1  0  0  0  0
 19  4  1  0  0  0  0
 20  1  1  0  0  0  0
 21 14  1  0  0  0  0
  5 22  1  0  0  0  0
 23 19  1  0  0  0  0
 24 27  1  0  0  0  0
  7 25  1  0  0  0  0
  6 26  1  0  0  0  0
 27 20  1  0  0  0  0
 28 20  1  0  0  0  0
 30 29  1  0  0  0  0
 30 41  1  0  0  0  0
 31 24  1  0  0  0  0
 32  2  1  0  0  0  0
 33  4  1  0  0  0  0
 34  3  1  0  0  0  0
 35 32  1  0  0  0  0
 36 25  1  0  0  0  0
 37 26  1  0  0  0  0
 38 31  1  0  0  0  0
 39 15  2  0  0  0  0
 40 28  1  0  0  0  0
 41 33  1  0  0  0  0
 42 43  1  0  0  0  0
 43 28  1  0  0  0  0
 44 25  2  0  0  0  0
 45 26  2  0  0  0  0
 46 31  2  0  0  0  0
 14 47  1  0  0  0  0
 18 48  1  0  0  0  0
 17 49  1  0  0  0  0
 16 50  1  0  0  0  0
 21 51  1  0  0  0  0
  2 52  1  1  0  0  0
  4 53  1  1  0  0  0
  3 54  1  6  0  0  0
 55 36  1  0  0  0  0
 56 37  1  0  0  0  0
 57 38  1  0  0  0  0
 23 58  1  6  0  0  0
 23 59  1  1  0  0  0
 60 56  1  0  0  0  0
 61 55  1  0  0  0  0
 62 57  1  0  0  0  0
 24 63  1  6  0  0  0
 28 64  1  1  0  0  0
 65 60  2  0  0  0  0
 66 61  2  0  0  0  0
 67 61  1  0  0  0  0
 68 60  1  0  0  0  0
 69 62  2  0  0  0  0
 70 62  1  0  0  0  0
 71 68  2  0  0  0  0
 72 65  1  0  0  0  0
 73 66  1  0  0  0  0
 74 69  1  0  0  0  0
 75 70  2  0  0  0  0
 76 67  2  0  0  0  0
 77 75  1  0  0  0  0
 78 76  1  0  0  0  0
 79 71  1  0  0  0  0
 40 34  1  0  0  0  0
  8  2  1  0  0  0  0
 42 24  1  0  0  0  0
 19 35  1  0  0  0  0
 30 23  1  0  0  0  0
 77 74  2  0  0  0  0
 16 17  1  0  0  0  0
 18  6  1  0  0  0  0
 78 73  2  0  0  0  0
 79 72  2  0  0  0  0
M  END
>  <IDNUMBER> (N016-0014)
N016-0014

>  <available> (N016-0014)
273

>  <H_acceptor> (N016-0014)
16

>  <H_donor> (N016-0014)
5

>  <B_rotN> (N016-0014)
21

>  <N_O> (N016-0014)
16

>  <logP> (N016-0014)
7.6

>  <logD> (N016-0014)
7.88

>  <logSw> (N016-0014)
-9.45

>  <PSA> (N016-0014)
234.04

>  <Chiral_centers> (N016-0014)
19

>  <Name> (N016-0014)
benzyl 5-({6-[(benzyloxy)carbonyl]-3,4,5-trihydroxyoxan-2-yl}oxy)-6-({11-[(benzyloxy)carbonyl]-4,4,6a,6b,8a,11,14b-heptamethyl-14-oxo-1,2,3,4,4a,5,6,6a,6b,7,8,8a,9,10,11,12,12a,14,14a,14b-icosahydropi
cen-3-yl}oxy)-3,4-dihydroxyoxane-2-carboxylate

>  <Smile> (N016-0014)
c1ccc(COC(C2OC(OC3C(OC4C(C5C(C6C(C)(CC5)C5(C(C7CC(C(OCc8ccccc8)=O)(C)CCC7(CC5)C)=CC6=O)C)(C)CC4)(C)C)OC(C(C3O)O)C(OCc3ccccc3)=O)C(O)C(C2O)O)=O)cc1

>  <Collection> (N016-0014)
DC

>  <InChI Key> (N016-0014)
PLFXIIUVMCJPBZ-CQIUSZNYSA-N

>  <PERCENTSP3> (N016-0014)
61.9

$$$$

  -ISIS-  -- StrEd -- 

 94100  0  0  0  0  0  0  0  0999 V2000
    1.8444    2.0132    0.0000 C   0  0  0  0  0  0  0  0  0  0  0  0
    1.0930    0.6966    0.0000 C   0  0  1  0  0  0  0  0  0  0  0  0
    1.8444    1.1186    0.0000 C   0  0  2  0  0  0  0  0  0  0  0  0
   -0.4263    0.6966    0.0000 C   0  0  2  0  0  0  0  0  0  0  0  0
   -4.7227   -1.1098    0.0000 C   0  0  0  0  0  0  0  0  0  0  0  0
   -5.3050   -4.7311    0.0000 C   0  0  0  0  0  0  0  0  0  0  0  0
   -3.5241   -2.7051    0.0000 C   0  0  0  0  0  0  0  0  0  0  0  0
    0.3419    1.1186    0.0000 C   0  0  0  0  0  0  0  0  0  0  0  0
   -3.5073   -5.5669    0.0000 C   0  0  0  0  0  0  0  0  0  0  0  0
   -2.8742   -1.9369    0.0000 C   0  0  0  0  0  0  0  0  0  0  0  0
   -4.1320   -4.7311    0.0000 O   0  0  0  0  0  0  0  0  0  0  0  0
   -3.5241   -1.1098    0.0000 O   0  0  0  0  0  0  0  0  0  0  0  0
    1.0930    2.4775    0.0000 C   0  0  0  0  0  0  0  0  0  0  0  0
   -4.1320   -6.3940    0.0000 C   0  0  0  0  0  0  0  0  0  0  0  0
    0.3419    2.0132    0.0000 C   0  0  0  0  0  0  0  0  0  0  0  0
   -5.3729   -1.9369    0.0000 C   0  0  0  0  0  0  0  0  0  0  0  0
   -5.9976   -5.5669    0.0000 C   0  0  0  0  0  0  0  0  0  0  0  0
   -4.7227   -2.7051    0.0000 C   0  0  0  0  0  0  0  0  0  0  0  0
   -0.4263   -0.2740    0.0000 C   0  0  0  0  0  0  0  0  0  0  0  0
    2.8151    2.6799    0.0000 C   0  0  0  0  0  0  0  0  0  0  0  0
   -5.3050   -6.3940    0.0000 C   0  0  0  0  0  0  0  0  0  0  0  0
   -4.7227   -0.6032    0.0000 C   0  0  0  0  0  0  0  0  0  0  0  0
   -5.3050   -4.2076    0.0000 C   0  0  0  0  0  0  0  0  0  0  0  0
   -3.5073   -4.0812    0.0000 O   0  0  0  0  0  0  0  0  0  0  0  0
   -1.2366   -0.7639    0.0000 C   0  0  1  0  0  0  0  0  0  0  0  0
    4.6807    4.9338    0.0000 C   0  0  0  0  0  0  0  0  0  0  0  0
    3.7692    4.3008    0.0000 C   0  0  2  0  0  0  0  0  0  0  0  0
    2.8151    3.7776    0.0000 C   0  0  0  0  0  0  0  0  0  0  0  0
   -6.0396   -3.8196    0.0000 N   0  0  0  0  0  0  0  0  0  0  0  0
   -5.2290   -0.3335    0.0000 N   0  0  0  0  0  0  0  0  0  0  0  0
    3.7692    2.1315    0.0000 C   0  0  1  0  0  0  0  0  0  0  0  0
   -2.8742   -0.7639    0.0000 O   0  0  0  0  0  0  0  0  0  0  0  0
   -2.0048   -0.2740    0.0000 C   0  0  0  0  0  0  0  0  0  0  0  0
    6.1408    4.1995    0.0000 N   0  0  0  0  0  0  0  0  0  0  0  0
    1.0930   -0.2740    0.0000 C   0  0  0  0  0  0  0  0  0  0  0  0
   -1.2366    1.1186    0.0000 C   0  0  0  0  0  0  0  0  0  0  0  0
    2.8151    0.4771    0.0000 C   0  0  0  0  0  0  0  0  0  0  0  0
    0.3419   -0.7639    0.0000 C   0  0  0  0  0  0  0  0  0  0  0  0
   -7.0274   -2.8319    0.0000 C   0  0  0  0  0  0  0  0  0  0  0  0
   -6.2003    0.6374    0.0000 C   0  0  0  0  0  0  0  0  0  0  0  0
    6.4616    5.5417    0.0000 C   0  0  0  0  0  0  0  0  0  0  0  0
   -7.0274   -3.8196    0.0000 C   0  0  0  0  0  0  0  0  0  0  0  0
   -5.2290    0.6374    0.0000 C   0  0  0  0  0  0  0  0  0  0  0  0
    6.9682    4.6894    0.0000 C   0  0  0  0  0  0  0  0  0  0  0  0
   -4.3344    3.0685    0.0000 C   0  0  0  0  0  0  0  0  0  0  0  0
   -9.4585   -4.6719    0.0000 C   0  0  0  0  0  0  0  0  0  0  0  0
    8.9774    2.9842    0.0000 C   0  0  0  0  0  0  0  0  0  0  0  0
   -0.6119    2.5622    0.0000 O   0  0  0  0  0  0  0  0  0  0  0  0
   -4.1152   -0.2320    0.0000 O   0  0  0  0  0  0  0  0  0  0  0  0
   -4.6807   -3.6169    0.0000 O   0  0  0  0  0  0  0  0  0  0  0  0
    3.7692    1.0177    0.0000 C   0  0  0  0  0  0  0  0  0  0  0  0
   -2.0048    0.6966    0.0000 C   0  0  0  0  0  0  0  0  0  0  0  0
    4.6807    6.1075    0.0000 O   0  0  0  0  0  0  0  0  0  0  0  0
    4.7227    3.7776    0.0000 C   0  0  0  0  0  0  0  0  0  0  0  0
    4.7227    2.6799    0.0000 C   0  0  0  0  0  0  0  0  0  0  0  0
    5.5921    5.5417    0.0000 O   0  0  0  0  0  0  0  0  0  0  0  0
   -6.1832   -2.3255    0.0000 O   0  0  0  0  0  0  0  0  0  0  0  0
   -6.6895   -0.2152    0.0000 O   0  0  0  0  0  0  0  0  0  0  0  0
    9.9648    2.9842    0.0000 O   0  0  0  0  0  0  0  0  0  0  0  0
   -5.1702    3.5752    0.0000 O   0  0  0  0  0  0  0  0  0  0  0  0
   -9.9648   -3.8196    0.0000 O   0  0  0  0  0  0  0  0  0  0  0  0
    7.4745    3.8368    0.0000 C   0  0  0  0  0  0  0  0  0  0  0  0
   -7.9812   -3.8196    0.0000 C   0  0  0  0  0  0  0  0  0  0  0  0
   -5.2290    1.6081    0.0000 C   0  0  0  0  0  0  0  0  0  0  0  0
   -4.1320   -7.2214    0.0000 O   0  0  0  0  0  0  0  0  0  0  0  0
   -5.9976   -6.6135    0.0000 O   0  0  0  0  0  0  0  0  0  0  0  0
   -5.3474   -2.8655    0.0000 O   0  0  0  0  0  0  0  0  0  0  0  0
   -4.7227   -1.8781    0.0000 O   0  0  0  0  0  0  0  0  0  0  0  0
   -5.3050   -5.5669    0.0000 O   0  0  0  0  0  0  0  0  0  0  0  0
    1.0930    1.5492    0.0000 C   0  0  0  0  0  0  0  0  0  0  0  0
   -0.4263    1.6081    0.0000 C   0  0  0  0  0  0  0  0  0  0  0  0
   -4.3599    2.0724    0.0000 C   0  0  0  0  0  0  0  0  0  0  0  0
   -8.4707   -4.6719    0.0000 C   0  0  0  0  0  0  0  0  0  0  0  0
    8.4707    3.8368    0.0000 C   0  0  0  0  0  0  0  0  0  0  0  0
    1.8612    0.0887    0.0000 C   0  0  0  0  0  0  0  0  0  0  0  0
    6.9514    6.3691    0.0000 O   0  0  0  0  0  0  0  0  0  0  0  0
   -7.8376   -2.3255    0.0000 O   0  0  0  0  0  0  0  0  0  0  0  0
   -6.7066    1.4645    0.0000 O   0  0  0  0  0  0  0  0  0  0  0  0
   -9.9480   -5.5246    0.0000 O   0  0  0  0  0  0  0  0  0  0  0  0
    8.4875    2.1315    0.0000 O   0  0  0  0  0  0  0  0  0  0  0  0
   -3.4818    3.5497    0.0000 O   0  0  0  0  0  0  0  0  0  0  0  0
   -0.5699   -1.6756    0.0000 C   0  0  0  0  0  0  0  0  0  0  0  0
   -1.7856   -1.8525    0.0000 C   0  0  0  0  0  0  0  0  0  0  0  0
    2.8151    4.9086    0.0000 C   0  0  0  0  0  0  0  0  0  0  0  0
    4.8410    1.4901    0.0000 C   0  0  0  0  0  0  0  0  0  0  0  0
   -7.7025    1.4901    0.0000 C   0  0  0  0  0  0  0  0  0  0  0  0
   -8.7155   -2.7898    0.0000 C   0  0  0  0  0  0  0  0  0  0  0  0
    6.4787    7.2214    0.0000 C   0  0  0  0  0  0  0  0  0  0  0  0
   -3.4818    4.5458    0.0000 C   0  0  0  0  0  0  0  0  0  0  0  0
    8.9939    1.2873    0.0000 C   0  0  0  0  0  0  0  0  0  0  0  0
   -9.4414   -6.3772    0.0000 C   0  0  0  0  0  0  0  0  0  0  0  0
    7.7956    5.1705    0.0000 H   0  0  0  0  0  0  0  0  0  0  0  0
   -7.0274   -4.8155    0.0000 H   0  0  0  0  0  0  0  0  0  0  0  0
   -4.2584    0.6374    0.0000 H   0  0  0  0  0  0  0  0  0  0  0  0
  2  3  1  0  0  0  0
  3  1  1  0  0  0  0
  8  4  1  0  0  0  0
  5 12  1  0  0  0  0
  6 11  1  0  0  0  0
  7 10  1  0  0  0  0
  8 15  1  0  0  0  0
  9 24  1  0  0  0  0
 10 32  1  0  0  0  0
 11  9  1  0  0  0  0
 12 10  1  0  0  0  0
 13  1  2  0  0  0  0
 14  9  1  0  0  0  0
 15 13  1  0  0  0  0
 16  5  1  0  0  0  0
 17 21  1  0  0  0  0
 18  7  1  0  0  0  0
 19  4  1  0  0  0  0
 20  1  1  0  0  0  0
 21 14  1  0  0  0  0
  5 22  1  0  0  0  0
  6 23  1  0  0  0  0
  7 24  1  0  0  0  0
 25 19  1  0  0  0  0
 26 27  1  0  0  0  0
 27 28  1  0  0  0  0
 28 20  1  0  0  0  0
 29 23  1  0  0  0  0
 30 22  1  0  0  0  0
 31 20  1  0  0  0  0
 33 32  1  0  0  0  0
 33 52  1  0  0  0  0
 34 26  1  0  0  0  0
 35  2  1  0  0  0  0
 36  4  1  0  0  0  0
 37  3  1  0  0  0  0
 38 35  1  0  0  0  0
 42 39  1  0  0  0  0
 43 40  1  0  0  0  0
 41 44  1  0  0  0  0
 42 29  1  0  0  0  0
 43 30  1  0  0  0  0
 44 34  1  0  0  0  0
 45 72  1  0  0  0  0
 46 73  1  0  0  0  0
 47 74  1  0  0  0  0
 48 15  2  0  0  0  0
 49 22  2  0  0  0  0
 50 23  2  0  0  0  0
 51 31  1  0  0  0  0
 52 36  1  0  0  0  0
 53 26  2  0  0  0  0
 54 55  1  0  0  0  0
 55 31  1  0  0  0  0
 56 41  2  0  0  0  0
 57 39  2  0  0  0  0
 58 40  2  0  0  0  0
 59 47  2  0  0  0  0
 60 45  2  0  0  0  0
 61 46  2  0  0  0  0
 44 62  1  0  0  0  0
 63 42  1  0  0  0  0
 64 43  1  0  0  0  0
 14 65  1  0  0  0  0
 17 66  1  0  0  0  0
 16 67  1  0  0  0  0
 18 68  1  0  0  0  0
 21 69  1  0  0  0  0
  2 70  1  1  0  0  0
  4 71  1  1  0  0  0
 72 64  1  0  0  0  0
 73 63  1  0  0  0  0
 74 62  1  0  0  0  0
  3 75  1  6  0  0  0
 76 41  1  0  0  0  0
 77 39  1  0  0  0  0
 78 40  1  0  0  0  0
 79 46  1  0  0  0  0
 80 47  1  0  0  0  0
 81 45  1  0  0  0  0
 25 82  1  6  0  0  0
 25 83  1  1  0  0  0
 27 84  1  6  0  0  0
 31 85  1  1  0  0  0
 86 78  1  0  0  0  0
 87 77  1  0  0  0  0
 88 76  1  0  0  0  0
 89 81  1  0  0  0  0
 90 80  1  0  0  0  0
 91 79  1  0  0  0  0
 92 44  1  0  0  0  0
 93 42  1  0  0  0  0
 94 43  1  0  0  0  0
 37 51  1  0  0  0  0
  2  8  1  0  0  0  0
 27 54  1  0  0  0  0
 38 19  1  0  0  0  0
 25 33  1  0  0  0  0
 16 18  1  0  0  0  0
  6 17  1  0  0  0  0
M  END
>  <IDNUMBER> (N016-0042)
N016-0042

>  <available> (N016-0042)
483

>  <H_acceptor> (N016-0042)
25

>  <H_donor> (N016-0042)
8

>  <B_rotN> (N016-0042)
36

>  <N_O> (N016-0042)
28

>  <logP> (N016-0042)
1.26

>  <logD> (N016-0042)
1.83

>  <logSw> (N016-0042)
-7.87

>  <PSA> (N016-0042)
400.24

>  <Chiral_centers> (N016-0042)
22

>  <Name> (N016-0042)
1,5-dimethyl 2-{[10-({6-[(1,5-dimethoxy-1,5-dioxopentan-2-yl)carbamoyl]-3-({6-[(1,5-dimethoxy-1,5-dioxopentan-2-yl)carbamoyl]-3,4,5-trihydroxyoxan-2-yl}oxy)-4,5-dihydroxyoxan-2-yl}oxy)-2,4a,6a,6b,9,9,
12a-heptamethyl-13-oxo-1,2,3,4,4a,5,6,6a,6b,7,8,8a,9,10,11,12,12a,12b,13,14b-icosahydropicen-2-yl]formamido}pentanedioate

>  <Smile> (N016-0042)
COC(CCC(NC(C1OC(OC2C(OC3C(C4C(C5C(C)(CC4)C4(C(C6CC(C(NC(C(=O)OC)CCC(=O)OC)=O)(C)CCC6(CC4)C)=CC5=O)C)(C)CC3)(C)C)OC(C(C2O)O)C(NC(C(=O)OC)CCC(=O)OC)=O)C(O)C(C1O)O)=O)C(=O)OC)=O

>  <Collection> (N016-0042)
DC

>  <InChI Key> (N016-0042)
FIUAWIPUZBNQLS-QCQHLZHHSA-N

>  <PERCENTSP3> (N016-0042)
81

$$$$

  -ISIS-  -- StrEd -- 

 23 25  0  0  0  0  0  0  0  0999 V2000
   -2.6263   -0.4927    0.0000 C   0  0  0  0  0  0  0  0  0  0  0  0
   -2.6263   -1.6180    0.0000 C   0  0  0  0  0  0  0  0  0  0  0  0
   -1.6669   -1.0327    0.0000 C   0  0  0  0  0  0  0  0  0  0  0  0
    0.1837   -0.9286    0.0000 C   0  0  0  0  0  0  0  0  0  0  0  0
   -0.7205   -0.4927    0.0000 O   0  0  0  0  0  0  0  0  0  0  0  0
   -2.6263   -2.6849    0.0000 C   0  0  0  0  0  0  0  0  0  0  0  0
    1.0034   -0.3821    0.0000 C   0  0  0  0  0  0  0  0  0  0  0  0
   -1.6669   -2.1547    0.0000 C   0  0  0  0  0  0  0  0  0  0  0  0
   -3.5728   -1.0327    0.0000 C   0  0  0  0  0  0  0  0  0  0  0  0
    0.9871    0.6164    0.0000 C   0  0  0  0  0  0  0  0  0  0  0  0
    1.8393    1.1465    0.0000 C   0  0  0  0  0  0  0  0  0  0  0  0
   -3.5728   -2.1547    0.0000 C   0  0  0  0  0  0  0  0  0  0  0  0
    2.7272    0.6848    0.0000 C   0  0  0  0  0  0  0  0  0  0  0  0
    0.1675   -1.9595    0.0000 O   0  0  0  0  0  0  0  0  0  0  0  0
    1.9075   -0.8667    0.0000 C   0  0  0  0  0  0  0  0  0  0  0  0
    2.7142   -0.3301    0.0000 C   0  0  0  0  0  0  0  0  0  0  0  0
   -2.6263    0.6001    0.0000 C   0  0  0  0  0  0  0  0  0  0  0  0
    1.8230    2.1385    0.0000 O   0  0  0  0  0  0  0  0  0  0  0  0
   -3.1954   -1.6180    0.0000 C   0  0  0  0  0  0  0  0  0  0  0  0
   -2.1352   -1.6180    0.0000 C   0  0  0  0  0  0  0  0  0  0  0  0
    3.5728    1.2311    0.0000 O   0  0  0  0  0  0  0  0  0  0  0  0
    2.6263    2.6849    0.0000 C   0  0  0  0  0  0  0  0  0  0  0  0
   -1.6669   -0.0862    0.0000 H   0  0  0  0  0  0  0  0  0  0  0  0
  1  2  1  0  0  0  0
  3  1  1  0  0  0  0
  4  5  1  0  0  0  0
  3  5  1  0  0  0  0
  6  2  1  0  0  0  0
  7  4  1  0  0  0  0
  8  3  1  0  0  0  0
  9  1  1  0  0  0  0
 10  7  1  0  0  0  0
 11 10  2  0  0  0  0
 12  9  1  0  0  0  0
 13 16  2  0  0  0  0
 14  4  2  0  0  0  0
 15  7  2  0  0  0  0
 16 15  1  0  0  0  0
 17  1  1  0  0  0  0
 18 11  1  0  0  0  0
  2 19  1  0  0  0  0
 20  2  1  0  0  0  0
 21 13  1  0  0  0  0
 22 18  1  0  0  0  0
 23  3  1  0  0  0  0
  6 12  1  0  0  0  0
  8  6  1  0  0  0  0
 13 11  1  0  0  0  0
M  END
>  <IDNUMBER> (N037-0032)
N037-0032

>  <available> (N037-0032)
64

>  <H_acceptor> (N037-0032)
4

>  <H_donor> (N037-0032)
1

>  <B_rotN> (N037-0032)
5

>  <N_O> (N037-0032)
4

>  <logP> (N037-0032)
3.73

>  <logD> (N037-0032)
5.35

>  <logSw> (N037-0032)
-3.23

>  <PSA> (N037-0032)
55.76

>  <Chiral_centers> (N037-0032)
3

>  <Name> (N037-0032)
1,7,7-trimethylbicyclo[2.2.1]heptan-2-yl 4-hydroxy-3-methoxybenzoate

>  <Smile> (N037-0032)
COc1cc(C(OC2C3(C)CCC(C3(C)C)C2)=O)ccc1O

>  <Collection> (N037-0032)
DC

>  <InChI Key> (N037-0032)
KTOAGBIQQPGNIR-UHFFFAOYSA-N

>  <PERCENTSP3> (N037-0032)
61.1

$$$$

  -ISIS-  -- StrEd -- 

 34 38  0  0  0  0  0  0  0  0999 V2000
    1.7050   -0.2738    0.0000 C   0  0  1  0  0  0  0  0  0  0  0  0
    0.8144   -0.7881    0.0000 C   0  0  1  0  0  0  0  0  0  0  0  0
   -0.9572   -0.7881    0.0000 C   0  0  2  0  0  0  0  0  0  0  0  0
    1.7050    0.7548    0.0000 C   0  0  0  0  0  0  0  0  0  0  0  0
   -0.0666   -0.2644    0.0000 C   0  0  0  0  0  0  0  0  0  0  0  0
   -0.9572   -1.8075    0.0000 C   0  0  0  0  0  0  0  0  0  0  0  0
    2.5862    1.2549    0.0000 C   0  0  0  0  0  0  0  0  0  0  0  0
   -1.8383   -2.3217    0.0000 C   0  0  1  0  0  0  0  0  0  0  0  0
    2.7669    2.2502    0.0000 C   0  0  0  0  0  0  0  0  0  0  0  0
    3.4625    0.7407    0.0000 C   0  0  0  0  0  0  0  0  0  0  0  0
   -2.7290   -1.8075    0.0000 C   0  0  0  0  0  0  0  0  0  0  0  0
    0.8144   -1.8075    0.0000 C   0  0  0  0  0  0  0  0  0  0  0  0
    2.5862   -0.7787    0.0000 C   0  0  0  0  0  0  0  0  0  0  0  0
    0.8144    1.2692    0.0000 C   0  0  0  0  0  0  0  0  0  0  0  0
   -1.8383   -0.2644    0.0000 C   0  0  0  0  0  0  0  0  0  0  0  0
   -0.0666    0.7548    0.0000 C   0  0  0  0  0  0  0  0  0  0  0  0
   -0.0666   -2.3217    0.0000 C   0  0  0  0  0  0  0  0  0  0  0  0
    2.0812    2.9694    0.0000 C   0  0  0  0  0  0  0  0  0  0  0  0
   -3.6004   -2.3074    0.0000 O   0  0  0  0  0  0  0  0  0  0  0  0
    3.7957    2.3788    0.0000 C   0  0  0  0  0  0  0  0  0  0  0  0
   -3.6004   -3.3028    0.0000 C   0  0  0  0  0  0  0  0  0  0  0  0
    3.4625   -0.2644    0.0000 C   0  0  0  0  0  0  0  0  0  0  0  0
    4.2292    1.4502    0.0000 C   0  0  0  0  0  0  0  0  0  0  0  0
   -2.7290   -0.7881    0.0000 C   0  0  0  0  0  0  0  0  0  0  0  0
   -2.7669   -3.9219    0.0000 O   0  0  0  0  0  0  0  0  0  0  0  0
    2.3575    3.9219    0.0000 C   0  0  0  0  0  0  0  0  0  0  0  0
    1.7050   -1.1453    0.0000 C   0  0  0  0  0  0  0  0  0  0  0  0
    0.8239    0.0785    0.0000 C   0  0  0  0  0  0  0  0  0  0  0  0
   -0.9572    0.1119    0.0000 C   0  0  0  0  0  0  0  0  0  0  0  0
   -1.0954   -2.7456    0.0000 C   0  0  0  0  0  0  0  0  0  0  0  0
   -2.5718   -2.7790    0.0000 C   0  0  0  0  0  0  0  0  0  0  0  0
    4.4243    0.2262    0.0000 C   0  0  0  0  0  0  0  0  0  0  0  0
    1.1097    2.7409    0.0000 C   0  0  0  0  0  0  0  0  0  0  0  0
   -4.4243   -3.7742    0.0000 C   0  0  0  0  0  0  0  0  0  0  0  0
  2  1  1  0  0  0  0
  5  3  1  0  0  0  0
  4  1  1  0  0  0  0
  5  2  1  0  0  0  0
  6 17  1  0  0  0  0
  7  4  1  0  0  0  0
  8  6  1  0  0  0  0
  9  7  1  0  0  0  0
 10 22  1  0  0  0  0
 11  8  1  0  0  0  0
 12  2  1  0  0  0  0
 13  1  1  0  0  0  0
 14  4  1  0  0  0  0
 15  3  1  0  0  0  0
 16 14  1  0  0  0  0
 17 12  1  0  0  0  0
  9 18  1  0  0  0  0
 11 19  1  0  0  0  0
 20  9  1  0  0  0  0
 21 19  1  0  0  0  0
 22 13  1  0  0  0  0
 23 10  1  0  0  0  0
 24 15  1  0  0  0  0
 25 21  2  0  0  0  0
 26 18  2  0  0  0  0
  1 27  1  6  0  0  0
  2 28  1  1  0  0  0
  3 29  1  1  0  0  0
  8 30  1  6  0  0  0
  8 31  1  1  0  0  0
 10 32  1  0  0  0  0
 33 18  1  0  0  0  0
 34 21  1  0  0  0  0
  7 10  1  0  0  0  0
  5 16  1  0  0  0  0
 20 23  1  0  0  0  0
  6  3  1  0  0  0  0
 11 24  1  0  0  0  0
M  END
>  <IDNUMBER> (N066-0054)
N066-0054

>  <available> (N066-0054)
95

>  <H_acceptor> (N066-0054)
2

>  <H_donor> (N066-0054)
0

>  <B_rotN> (N066-0054)
3

>  <N_O> (N066-0054)
2

>  <logP> (N066-0054)
7.78

>  <logD> (N066-0054)
9.1

>  <logSw> (N066-0054)
-10.74

>  <PSA> (N066-0054)
26.3

>  <Chiral_centers> (N066-0054)
10

>  <Name> (N066-0054)
3a,5a,5b,8,8,11a-hexamethyl-1-(prop-1-en-2-yl)-icosahydro-1H-cyclopenta[a]chrysen-9-yl acetate

>  <Smile> (N066-0054)
CC(OC1C(C2C(C3C(C4(CCC5(C(C4CC3)C(CC5)C(=C)C)C)C)(C)CC2)(CC1)C)(C)C)=O

>  <Collection> (N066-0054)
DC

>  <InChI Key> (N066-0054)
ODSSDTBFHAYYMD-YGYMMTEKSA-N

>  <PERCENTSP3> (N066-0054)
90.6

$$$$

  -ISIS-  -- StrEd -- 

 55 62  0  0  0  0  0  0  0  0999 V2000
   -0.1514    1.7619    0.0000 C   0  0  0  0  0  0  0  0  0  0  0  0
   -0.8900    1.3138    0.0000 C   0  0  0  0  0  0  0  0  0  0  0  0
    1.3140    1.7619    0.0000 C   0  0  2  0  0  0  0  0  0  0  0  0
    1.3140    2.6097    0.0000 C   0  0  0  0  0  0  0  0  0  0  0  0
    0.5874    1.3138    0.0000 C   0  0  0  0  0  0  0  0  0  0  0  0
   -0.8900    2.3313    0.0000 C   0  0  0  0  0  0  0  0  0  0  0  0
   -0.8900    0.4843    0.0000 C   0  0  0  0  0  0  0  0  0  0  0  0
    2.1132    2.8520    0.0000 C   0  0  0  0  0  0  0  0  0  0  0  0
   -0.1211   -3.2516    0.0000 C   0  0  0  0  0  0  0  0  0  0  0  0
    2.5492    3.7723    0.0000 C   0  0  2  0  0  0  0  0  0  0  0  0
   -0.9385   -4.2505    0.0000 C   0  0  0  0  0  0  0  0  0  0  0  0
   -3.7844   -2.0164    0.0000 C   0  0  0  0  0  0  0  0  0  0  0  0
   -2.4340   -4.2505    0.0000 C   0  0  0  0  0  0  0  0  0  0  0  0
   -3.0697   -1.0959    0.0000 C   0  0  0  0  0  0  0  0  0  0  0  0
   -0.9385   -2.1735    0.0000 O   0  0  0  0  0  0  0  0  0  0  0  0
   -0.1514    0.0665    0.0000 C   0  0  2  0  0  0  0  0  0  0  0  0
   -1.6467    0.0665    0.0000 C   0  0  2  0  0  0  0  0  0  0  0  0
    3.4513    3.4513    0.0000 O   0  0  0  0  0  0  0  0  0  0  0  0
   -3.2152   -3.2516    0.0000 C   0  0  0  0  0  0  0  0  0  0  0  0
    2.1132    1.5198    0.0000 C   0  0  0  0  0  0  0  0  0  0  0  0
    2.5793    2.1860    0.0000 C   0  0  0  0  0  0  0  0  0  0  0  0
   -5.1526   -2.0164    0.0000 C   0  0  0  0  0  0  0  0  0  0  0  0
   -2.4340   -2.1735    0.0000 C   0  0  0  0  0  0  0  0  0  0  0  0
    0.5874    0.4843    0.0000 C   0  0  0  0  0  0  0  0  0  0  0  0
   -0.1211   -1.7682    0.0000 O   0  0  0  0  0  0  0  0  0  0  0  0
   -0.1514    2.6097    0.0000 C   0  0  0  0  0  0  0  0  0  0  0  0
   -2.3190    0.4843    0.0000 C   0  0  0  0  0  0  0  0  0  0  0  0
   -3.7844   -0.1817    0.0000 O   0  0  0  0  0  0  0  0  0  0  0  0
   -3.0697    0.0483    0.0000 O   0  0  0  0  0  0  0  0  0  0  0  0
   -1.6467    1.7619    0.0000 C   0  0  0  0  0  0  0  0  0  0  0  0
    0.5874    3.0456    0.0000 C   0  0  0  0  0  0  0  0  0  0  0  0
    4.0025    4.2505    0.0000 C   0  0  0  0  0  0  0  0  0  0  0  0
   -5.8793   -1.0959    0.0000 C   0  0  0  0  0  0  0  0  0  0  0  0
    4.9228    4.2505    0.0000 C   0  0  0  0  0  0  0  0  0  0  0  0
    2.5492    4.6865    0.0000 C   0  0  0  0  0  0  0  0  0  0  0  0
   -5.1526   -0.1817    0.0000 C   0  0  0  0  0  0  0  0  0  0  0  0
   -2.3190    1.3138    0.0000 C   0  0  0  0  0  0  0  0  0  0  0  0
    3.4513    4.9770    0.0000 C   0  0  0  0  0  0  0  0  0  0  0  0
   -0.9385   -5.1951    0.0000 O   0  0  0  0  0  0  0  0  0  0  0  0
   -3.7844   -2.7972    0.0000 O   0  0  0  0  0  0  0  0  0  0  0  0
   -2.4158   -3.2635    0.0000 O   0  0  0  0  0  0  0  0  0  0  0  0
    1.3140    0.9627    0.0000 C   0  0  0  0  0  0  0  0  0  0  0  0
   -3.2031   -4.5110    0.0000 O   0  0  0  0  0  0  0  0  0  0  0  0
    1.3140    3.5965    0.0000 C   0  0  0  0  0  0  0  0  0  0  0  0
   -5.1526   -1.1444    0.0000 O   0  0  0  0  0  0  0  0  0  0  0  0
    3.4937    2.1860    0.0000 O   0  0  0  0  0  0  0  0  0  0  0  0
    1.8408    4.2505    0.0000 C   0  0  0  0  0  0  0  0  0  0  0  0
    5.8793    4.2505    0.0000 O   0  0  0  0  0  0  0  0  0  0  0  0
   -5.8793   -2.1735    0.0000 O   0  0  0  0  0  0  0  0  0  0  0  0
   -2.4340   -1.5321    0.0000 C   0  0  0  0  0  0  0  0  0  0  0  0
   -2.1434   -0.7085    0.0000 C   0  0  0  0  0  0  0  0  0  0  0  0
   -1.3140   -0.6781    0.0000 C   0  0  0  0  0  0  0  0  0  0  0  0
   -1.5319   -1.3743    0.0000 O   0  0  0  0  0  0  0  0  0  0  0  0
    4.9228    3.2878    0.0000 C   0  0  0  0  0  0  0  0  0  0  0  0
    4.9228    5.1951    0.0000 C   0  0  0  0  0  0  0  0  0  0  0  0
  2  1  1  0  0  0  0
  5  3  1  0  0  0  0
  4 31  1  0  0  0  0
  5  1  1  0  0  0  0
  1  6  1  0  0  0  0
  7  2  1  0  0  0  0
  8  4  1  0  0  0  0
  9 25  1  0  0  0  0
  8 10  1  0  0  0  0
 11  9  1  0  0  0  0
 12 14  1  0  0  0  0
 13 11  1  0  0  0  0
 14 29  1  0  0  0  0
 15  9  1  0  0  0  0
 16 24  1  0  0  0  0
 17  7  1  0  0  0  0
 10 18  1  6  0  0  0
 19 23  1  0  0  0  0
 20  3  1  0  0  0  0
 21 20  1  0  0  0  0
 22 12  1  0  0  0  0
 23 15  1  0  0  0  0
 24  5  1  0  0  0  0
 16 25  1  6  0  0  0
 26  1  1  0  0  0  0
 27 37  1  0  0  0  0
 28 14  1  0  0  0  0
 27 29  1  0  0  0  0
 30  2  1  0  0  0  0
 31 26  1  0  0  0  0
 32 18  1  0  0  0  0
 33 36  1  0  0  0  0
 34 32  1  0  0  0  0
 35 10  1  0  0  0  0
 36 28  1  0  0  0  0
 37 30  1  0  0  0  0
 38 35  1  0  0  0  0
 11 39  1  0  0  0  0
 12 40  1  0  0  0  0
 13 41  1  0  0  0  0
  3 42  1  6  0  0  0
 19 43  1  0  0  0  0
  4 44  1  0  0  0  0
 22 45  1  0  0  0  0
 21 46  1  0  0  0  0
 10 47  1  6  0  0  0
 48 34  1  0  0  0  0
 33 49  1  0  0  0  0
 23 50  1  0  0  0  0
 51 17  1  0  0  0  0
 17 52  1  6  0  0  0
 53 50  1  0  0  0  0
 54 34  1  0  0  0  0
 55 34  1  0  0  0  0
  6  2  1  0  0  0  0
  3  4  1  0  0  0  0
 16  7  1  0  0  0  0
 21  8  1  0  0  0  0
 17 27  1  0  0  0  0
 32 38  1  0  0  0  0
 13 19  1  0  0  0  0
 33 22  1  0  0  0  0
M  END
>  <IDNUMBER> (N039-0045)
N039-0045

>  <available> (N039-0045)
254

>  <H_acceptor> (N039-0045)
14

>  <H_donor> (N039-0045)
9

>  <B_rotN> (N039-0045)
16

>  <N_O> (N039-0045)
14

>  <logP> (N039-0045)
-0.35

>  <logD> (N039-0045)
0.65

>  <logSw> (N039-0045)
-5.26

>  <PSA> (N039-0045)
228.22

>  <Chiral_centers> (N039-0045)
21

>  <Name> (N039-0045)
2-({14-HYDROXY-15-[5-(2-HYDROXYPROPAN-2-YL)-2-METHYLOXOLAN-2-YL]-7,7,12,16-TETRAMETHYL-6-[(3,4,5-TRIHYDROXYOXAN-2-YL)OXY]PENTACYCLO[9.7.0.0^(1,3).0^(3,8).0^(12,16)]OCTADECAN-9-YL}OXY)-6-(HYDROXYMETHYL
)OXANE-3,4,5-TRIOL

>  <Smile> (N039-0045)
CC(C1OC(C2C3(C(C)(CC2O)C2C4(CC3)CC34CCC(C(C3C(C2)OC2C(C(C(C(O2)CO)O)O)O)(C)C)OC2C(O)C(C(CO2)O)O)C)(C)CC1)(C)O

>  <Collection> (N039-0045)
DC

>  <InChI Key> (N039-0045)
QMNWISYXSJWHRY-JNZVQKLASA-N

>  <PERCENTSP3> (N039-0045)
100

$$$$

  -ISIS-  -- StrEd -- 

 15 16  0  0  0  0  0  0  0  0999 V2000
    0.5956   -1.3207    0.0000 C   0  0  0  0  0  0  0  0  0  0  0  0
    0.0379   -0.5176    0.0000 N   0  0  0  0  0  0  0  0  0  0  0  0
    0.0379   -2.1238    0.0000 S   0  0  0  0  0  0  0  0  0  0  0  0
   -0.9391   -0.8165    0.0000 C   0  0  0  0  0  0  0  0  0  0  0  0
   -0.9391   -1.8204    0.0000 C   0  0  0  0  0  0  0  0  0  0  0  0
    0.3814    0.4149    0.0000 C   0  0  0  0  0  0  0  0  0  0  0  0
    1.3497    0.5755    0.0000 C   0  0  0  0  0  0  0  0  0  0  0  0
    1.6976    1.5124    0.0000 C   0  0  0  0  0  0  0  0  0  0  0  0
    1.5906   -1.3207    0.0000 O   0  0  0  0  0  0  0  0  0  0  0  0
    1.0551    2.3246    0.0000 O   0  0  0  0  0  0  0  0  0  0  0  0
    2.6703    1.5839    0.0000 O   0  0  0  0  0  0  0  0  0  0  0  0
   -1.8092   -0.3079    0.0000 C   0  0  0  0  0  0  0  0  0  0  0  0
   -1.8092   -2.3246    0.0000 C   0  0  0  0  0  0  0  0  0  0  0  0
   -2.6703   -0.8165    0.0000 C   0  0  0  0  0  0  0  0  0  0  0  0
   -2.6703   -1.8204    0.0000 C   0  0  0  0  0  0  0  0  0  0  0  0
  2  1  1  0  0  0  0
  3  1  1  0  0  0  0
  4  2  1  0  0  0  0
  5  3  1  0  0  0  0
  6  2  1  0  0  0  0
  7  6  1  0  0  0  0
  8  7  1  0  0  0  0
  9  1  2  0  0  0  0
 10  8  2  0  0  0  0
 11  8  1  0  0  0  0
 12  4  1  0  0  0  0
 13  5  1  0  0  0  0
 14 12  2  0  0  0  0
 15 13  2  0  0  0  0
  4  5  2  0  0  0  0
 14 15  1  0  0  0  0
M  END
>  <IDNUMBER> (N013-0012)
N013-0012

>  <available> (N013-0012)
940

>  <H_acceptor> (N013-0012)
4

>  <H_donor> (N013-0012)
1

>  <B_rotN> (N013-0012)
4

>  <N_O> (N013-0012)
4

>  <logP> (N013-0012)
1.81

>  <logD> (N013-0012)
-0.95

>  <logSw> (N013-0012)
-0.38

>  <PSA> (N013-0012)
57.61

>  <Chiral_centers> (N013-0012)
0

>  <Name> (N013-0012)
3-(2-oxo-2,3-dihydro-1,3-benzothiazol-3-yl)propanoic acid

>  <Smile> (N013-0012)
C1(N(c2c(S1)cccc2)CCC(=O)O)=O

>  <Collection> (N013-0012)
DC

>  <InChI Key> (N013-0012)
MNJIHLQXWFMJRV-UHFFFAOYSA-N

>  <PERCENTSP3> (N013-0012)
20

$$$$

  -ISIS-  -- StrEd -- 

 31 33  0  0  0  0  0  0  0  0999 V2000
   -0.0393    1.7087    0.0000 C   0  0  0  0  0  0  0  0  0  0  0  0
   -0.0393    0.7395    0.0000 C   0  0  2  0  0  0  0  0  0  0  0  0
    0.8235    2.2185    0.0000 C   0  0  0  0  0  0  0  0  0  0  0  0
   -0.9020    0.2521    0.0000 C   0  0  2  0  0  0  0  0  0  0  0  0
   -0.9020    2.1907    0.0000 C   0  0  0  0  0  0  0  0  0  0  0  0
   -1.7592    0.7116    0.0000 C   0  0  0  0  0  0  0  0  0  0  0  0
   -1.7592    1.7087    0.0000 O   0  0  0  0  0  0  0  0  0  0  0  0
    1.6807    1.7312    0.0000 O   0  0  0  0  0  0  0  0  0  0  0  0
    2.5435    2.2185    0.0000 C   0  0  0  0  0  0  0  0  0  0  0  0
    0.8235   -0.7003    0.0000 C   0  0  0  0  0  0  0  0  0  0  0  0
   -1.7313   -1.2269    0.0000 C   0  0  0  0  0  0  0  0  0  0  0  0
    0.8067    0.2689    0.0000 O   0  0  0  0  0  0  0  0  0  0  0  0
   -0.9020   -0.7395    0.0000 O   0  0  0  0  0  0  0  0  0  0  0  0
    0.8235    3.1878    0.0000 C   0  0  0  0  0  0  0  0  0  0  0  0
    1.6807    3.6696    0.0000 C   0  0  0  0  0  0  0  0  0  0  0  0
   -1.7313   -2.2185    0.0000 C   0  0  0  0  0  0  0  0  0  0  0  0
    0.0169   -1.1991    0.0000 C   0  0  0  0  0  0  0  0  0  0  0  0
    2.5435    3.1878    0.0000 C   0  0  0  0  0  0  0  0  0  0  0  0
   -0.9020    3.1878    0.0000 C   0  0  0  0  0  0  0  0  0  0  0  0
    1.6807   -1.2494    0.0000 O   0  0  0  0  0  0  0  0  0  0  0  0
   -2.5940   -0.7395    0.0000 O   0  0  0  0  0  0  0  0  0  0  0  0
   -2.5940   -2.7060    0.0000 C   0  0  0  0  0  0  0  0  0  0  0  0
    0.2297   -2.3252    0.0000 C   0  0  0  0  0  0  0  0  0  0  0  0
    3.4287    1.7591    0.0000 O   0  0  0  0  0  0  0  0  0  0  0  0
   -0.0393    3.6696    0.0000 C   0  0  0  0  0  0  0  0  0  0  0  0
   -2.7004    0.9524    0.0000 C   0  0  0  0  0  0  0  0  0  0  0  0
   -2.5940    0.2017    0.0000 C   0  0  0  0  0  0  0  0  0  0  0  0
   -2.5940   -3.6696    0.0000 C   0  0  0  0  0  0  0  0  0  0  0  0
   -3.4287   -2.2185    0.0000 C   0  0  0  0  0  0  0  0  0  0  0  0
   -0.7003   -3.1094    0.0000 C   0  0  0  0  0  0  0  0  0  0  0  0
    1.3054   -2.7732    0.0000 C   0  0  0  0  0  0  0  0  0  0  0  0
  2  1  1  0  0  0  0
  3  1  1  0  0  0  0
  4  2  1  0  0  0  0
  5  1  2  0  0  0  0
  6  7  1  0  0  0  0
  7  5  1  0  0  0  0
  8  3  1  0  0  0  0
  9  8  1  0  0  0  0
 10 12  1  0  0  0  0
 11 13  1  0  0  0  0
  2 12  1  1  0  0  0
  4 13  1  1  0  0  0
 14  3  2  0  0  0  0
 15 14  1  0  0  0  0
 16 11  1  0  0  0  0
 17 10  1  0  0  0  0
 18 15  2  0  0  0  0
 19  5  1  0  0  0  0
 20 10  2  0  0  0  0
 21 11  2  0  0  0  0
 22 16  2  0  0  0  0
 23 17  2  0  0  0  0
 24  9  2  0  0  0  0
 25 19  2  0  0  0  0
  6 26  1  0  0  0  0
 27  6  1  0  0  0  0
 28 22  1  0  0  0  0
 29 22  1  0  0  0  0
 30 23  1  0  0  0  0
 31 23  1  0  0  0  0
 14 25  1  0  0  0  0
  4  6  1  0  0  0  0
 18  9  1  0  0  0  0
M  END
>  <IDNUMBER> (0080-0061)
0080-0061

>  <available> (0080-0061)
15

>  <H_acceptor> (0080-0061)
7

>  <H_donor> (0080-0061)
0

>  <B_rotN> (0080-0061)
6

>  <N_O> (0080-0061)
7

>  <logP> (0080-0061)
4.73

>  <logD> (0080-0061)
3.99

>  <logSw> (0080-0061)
-5.79

>  <PSA> (0080-0061)
88.13

>  <Chiral_centers> (0080-0061)
2

>  <Name> (0080-0061)
8,8-dimethyl-10-[(3-methylbut-2-enoyl)oxy]-2-oxo-2H,8H,9H,10H-pyrano[2,3-h]chromen-9-yl 3-methylbut-2-enoate

>  <Smile> (0080-0061)
CC(=CC(OC1c2c(OC(C1OC(C=C(C)C)=O)(C)C)ccc1c2OC(C=C1)=O)=O)C

>  <Collection> (0080-0061)
DC

>  <InChI Key> (0080-0061)
UHWIZIJICYWABA-DHIUTWEWSA-N

>  <PERCENTSP3> (0080-0061)
37.5

$$$$

  -ISIS-  -- StrEd -- 

 35 39  0  0  0  0  0  0  0  0999 V2000
   -0.0135    1.7526    0.0000 C   0  0  0  0  0  0  0  0  0  0  0  0
   -3.5225    0.7412    0.0000 C   0  0  0  0  0  0  0  0  0  0  0  0
   -0.0212    2.5479    0.0000 O   0  0  0  0  0  0  0  0  0  0  0  0
   -2.8201    1.4476    0.0000 O   0  0  0  0  0  0  0  0  0  0  0  0
   -0.9014   -0.7953    0.0000 C   0  0  0  0  0  0  0  0  0  0  0  0
   -0.0212   -1.3047    0.0000 C   0  0  0  0  0  0  0  0  0  0  0  0
   -1.7737   -1.3047    0.0000 C   0  0  0  0  0  0  0  0  0  0  0  0
   -0.0135    0.7412    0.0000 C   0  0  0  0  0  0  0  0  0  0  0  0
   -2.6424    0.2316    0.0000 C   0  0  0  0  0  0  0  0  0  0  0  0
   -3.5225    1.7719    0.0000 C   0  0  0  0  0  0  0  0  0  0  0  0
    0.8783    2.2428    0.0000 C   0  0  0  0  0  0  0  0  0  0  0  0
   -0.0212   -2.3317    0.0000 C   0  0  0  0  0  0  0  0  0  0  0  0
   -1.7737   -2.3317    0.0000 C   0  0  0  0  0  0  0  0  0  0  0  0
   -0.9014   -2.8413    0.0000 O   0  0  0  0  0  0  0  0  0  0  0  0
   -0.9014    0.2162    0.0000 O   0  0  0  0  0  0  0  0  0  0  0  0
   -2.6424   -0.7953    0.0000 O   0  0  0  0  0  0  0  0  0  0  0  0
    1.7853   -2.3317    0.0000 C   0  0  0  0  0  0  0  0  0  0  0  0
    0.8783   -0.7953    0.0000 C   0  0  0  0  0  0  0  0  0  0  0  0
    2.6848   -2.8259    0.0000 O   0  0  0  0  0  0  0  0  0  0  0  0
    0.8783   -2.8259    0.0000 C   0  0  0  0  0  0  0  0  0  0  0  0
    1.7853   -1.3047    0.0000 C   0  0  0  0  0  0  0  0  0  0  0  0
    3.5458   -2.3317    0.0000 C   0  0  0  0  0  0  0  0  0  0  0  0
    2.6848   -0.7953    0.0000 C   0  0  0  0  0  0  0  0  0  0  0  0
    3.5458   -1.3047    0.0000 C   0  0  0  0  0  0  0  0  0  0  0  0
    0.8667    0.2509    0.0000 O   0  0  0  0  0  0  0  0  0  0  0  0
   -1.7546    0.7412    0.0000 O   0  0  0  0  0  0  0  0  0  0  0  0
    4.4144   -2.8259    0.0000 O   0  0  0  0  0  0  0  0  0  0  0  0
   -4.3757    0.2162    0.0000 C   0  0  0  0  0  0  0  0  0  0  0  0
   -0.9747    1.7526    0.0000 C   0  0  0  0  0  0  0  0  0  0  0  0
   -2.6424    2.2815    0.0000 C   0  0  0  0  0  0  0  0  0  0  0  0
    1.7468    1.7255    0.0000 C   0  0  0  0  0  0  0  0  0  0  0  0
   -1.7546   -3.2503    0.0000 C   0  0  0  0  0  0  0  0  0  0  0  0
   -2.6424   -2.8413    0.0000 C   0  0  0  0  0  0  0  0  0  0  0  0
    0.8936    3.2503    0.0000 H   0  0  0  0  0  0  0  0  0  0  0  0
   -4.4144    2.2815    0.0000 H   0  0  0  0  0  0  0  0  0  0  0  0
  2  9  1  0  0  0  0
  1  3  1  0  0  0  0
  2  4  1  0  0  0  0
  5 15  1  0  0  0  0
  6  5  1  0  0  0  0
  7  5  1  0  0  0  0
  8  1  1  0  0  0  0
  9 16  1  0  0  0  0
 10  2  1  0  0  0  0
 11  1  1  0  0  0  0
 12  6  1  0  0  0  0
 13  7  1  0  0  0  0
 14 13  1  0  0  0  0
 15  8  1  0  0  0  0
  7 16  1  0  0  0  0
 17 21  2  0  0  0  0
 18  6  2  0  0  0  0
 19 17  1  0  0  0  0
 20 12  2  0  0  0  0
 21 18  1  0  0  0  0
 22 24  1  0  0  0  0
 23 21  1  0  0  0  0
 24 23  2  0  0  0  0
 25  8  2  0  0  0  0
 26  9  2  0  0  0  0
 27 22  2  0  0  0  0
 28  2  1  0  0  0  0
 29  1  1  0  0  0  0
 10 30  1  0  0  0  0
 31 11  1  0  0  0  0
 13 32  1  0  0  0  0
 33 13  1  0  0  0  0
 34 11  1  0  0  0  0
 35 10  1  0  0  0  0
  3 11  1  0  0  0  0
 14 12  1  0  0  0  0
 20 17  1  0  0  0  0
  4 10  1  0  0  0  0
 19 22  1  0  0  0  0
M  END
>  <IDNUMBER> (N034-0005)
N034-0005

>  <available> (N034-0005)
13

>  <H_acceptor> (N034-0005)
9

>  <H_donor> (N034-0005)
0

>  <B_rotN> (N034-0005)
6

>  <N_O> (N034-0005)
9

>  <logP> (N034-0005)
2.61

>  <logD> (N034-0005)
3.56

>  <logSw> (N034-0005)
-3.78

>  <PSA> (N034-0005)
113.19

>  <Chiral_centers> (N034-0005)
6

>  <Name> (N034-0005)
3-(2,3-dimethyloxirane-2-carbonyloxy)-2,2-dimethyl-8-oxo-2H,3H,4H,8H-pyrano[3,2-g]chromen-4-yl 2,3-dimethyloxirane-2-carboxylate

>  <Smile> (N034-0005)
CC1(C(C(OC(C2(C)C(O2)C)=O)c2c(cc3OC(C=Cc3c2)=O)O1)OC(C1(C(O1)C)C)=O)C

>  <Collection> (N034-0005)
DC

>  <InChI Key> (N034-0005)
XVGNCXGTKQLGAI-UHFFFAOYSA-N

>  <PERCENTSP3> (N034-0005)
54.2

$$$$

  -ISIS-  -- StrEd -- 

 26 31  0  0  0  0  0  0  0  0999 V2000
   -0.7292   -0.2771    0.0000 C   0  0  2  0  0  0  0  0  0  0  0  0
    0.7709   -0.2896    0.0000 C   0  0  2  0  0  0  0  0  0  0  0  0
   -0.7417    0.5938    0.0000 C   0  0  0  0  0  0  0  0  0  0  0  0
    0.0208    0.1605    0.0000 C   0  0  0  0  0  0  0  0  0  0  0  0
   -0.7335   -1.1439    0.0000 C   0  0  0  0  0  0  0  0  0  0  0  0
    0.7709   -1.1521    0.0000 C   0  0  0  0  0  0  0  0  0  0  0  0
   -1.5418   -0.6688    0.0000 N   0  0  0  0  0  0  0  0  0  0  0  0
    2.4169    1.0187    0.0000 C   0  0  0  0  0  0  0  0  0  0  0  0
    2.3710   -0.3063    0.0000 C   0  0  1  0  0  0  0  0  0  0  0  0
   -1.4835   -1.5772    0.0000 C   0  0  2  0  0  0  0  0  0  0  0  0
    1.5459    1.0187    0.0000 C   0  0  0  0  0  0  0  0  0  0  0  0
    1.5335    0.1438    0.0000 C   0  0  0  0  0  0  0  0  0  0  0  0
    0.7917    1.4606    0.0000 C   0  0  0  0  0  0  0  0  0  0  0  0
    0.0083   -1.5814    0.0000 C   0  0  0  0  0  0  0  0  0  0  0  0
    0.0208    1.0313    0.0000 C   0  0  0  0  0  0  0  0  0  0  0  0
   -2.1086   -2.1940    0.0000 C   0  0  0  0  0  0  0  0  0  0  0  0
   -1.4835    0.1687    0.0000 C   0  0  2  0  0  0  0  0  0  0  0  0
   -2.2335   -1.1439    0.0000 C   0  0  0  0  0  0  0  0  0  0  0  0
    3.0337    1.6231    0.0000 C   0  0  0  0  0  0  0  0  0  0  0  0
    0.8042    2.3315    0.0000 O   0  0  0  0  0  0  0  0  0  0  0  0
   -2.2335   -0.2771    0.0000 C   0  0  0  0  0  0  0  0  0  0  0  0
    2.9793   -0.9313    0.0000 O   0  0  0  0  0  0  0  0  0  0  0  0
   -2.4169   -0.6688    0.0000 C   0  0  0  0  0  0  0  0  0  0  0  0
   -1.0543   -2.3315    0.0000 C   0  0  0  0  0  0  0  0  0  0  0  0
   -1.4835    1.0356    0.0000 O   0  0  0  0  0  0  0  0  0  0  0  0
   -3.0337   -1.2812    0.0000 C   0  0  0  0  0  0  0  0  0  0  0  0
  4  2  1  0  0  0  0
  1  3  1  6  0  0  0
  4  1  1  0  0  0  0
  5  1  1  0  0  0  0
  3  6  1  0  0  0  0
  3  7  1  0  0  0  0
  8  9  1  0  0  0  0
  9  2  1  0  0  0  0
 10  5  1  0  0  0  0
 11 13  1  0  0  0  0
  2 12  1  6  0  0  0
 13 15  1  0  0  0  0
 14  5  1  0  0  0  0
 15  4  1  0  0  0  0
 10 16  1  6  0  0  0
 17  1  1  0  0  0  0
 18 21  1  0  0  0  0
 19  8  2  0  0  0  0
 20 13  2  0  0  0  0
 21 17  1  0  0  0  0
  9 22  1  1  0  0  0
  7 23  1  0  0  0  0
 24 10  1  0  0  0  0
 17 25  1  6  0  0  0
 23 26  1  0  0  0  0
  6 14  1  0  0  0  0
  6  2  1  0  0  0  0
 10 18  1  0  0  0  0
  7 16  1  0  0  0  0
 12 11  1  0  0  0  0
 11  8  1  0  0  0  0
M  END
>  <IDNUMBER> (N105-0032)
N105-0032

>  <available> (N105-0032)
11

>  <H_acceptor> (N105-0032)
4

>  <H_donor> (N105-0032)
2

>  <B_rotN> (N105-0032)
3

>  <N_O> (N105-0032)
4

>  <logP> (N105-0032)
0.9

>  <logD> (N105-0032)
0.57

>  <logSw> (N105-0032)
-0.08

>  <PSA> (N105-0032)
60.77

>  <Chiral_centers> (N105-0032)
10

>  <Name> (N105-0032)
11-ETHYL-7,16-DIHYDROXY-13-METHYL-6-METHYLIDENE-11-AZAHEXACYCLO[7.7.2.1^(5,8).0^(1,10).0^(2,8).0^(13,17)]NONADECAN-4-ONE

>  <Smile> (N105-0032)
CCN1C2C34C(O)CCC(C4CC2C24C(C(=C)C(C(CC23)=O)C4)O)(C)C1

>  <Collection> (N105-0032)
DC

>  <InChI Key> (N105-0032)
CBOSLVQFGANWTL-JYVZNXDSSA-N

>  <PERCENTSP3> (N105-0032)
86.4

$$$$

  -ISIS-  -- StrEd -- 

 22 24  0  0  0  0  0  0  0  0999 V2000
   -0.3759    1.2421    0.0000 C   0  0  0  0  0  0  0  0  0  0  0  0
    0.5067    1.7389    0.0000 C   0  0  0  0  0  0  0  0  0  0  0  0
   -1.2192   -0.2680    0.0000 C   0  0  0  0  0  0  0  0  0  0  0  0
   -2.0691    1.2682    0.0000 O   0  0  0  0  0  0  0  0  0  0  0  0
   -1.2192    1.7389    0.0000 C   0  0  0  0  0  0  0  0  0  0  0  0
   -2.1017    0.2680    0.0000 C   0  0  0  0  0  0  0  0  0  0  0  0
   -0.3759    0.2680    0.0000 C   0  0  0  0  0  0  0  0  0  0  0  0
    1.3499    1.2421    0.0000 O   0  0  0  0  0  0  0  0  0  0  0  0
   -1.2192   -1.2682    0.0000 N   0  0  0  0  0  0  0  0  0  0  0  0
    2.1997    1.7126    0.0000 C   0  0  0  0  0  0  0  0  0  0  0  0
   -2.1017   -2.7454    0.0000 C   0  0  0  0  0  0  0  0  0  0  0  0
    1.3826    3.2489    0.0000 C   0  0  0  0  0  0  0  0  0  0  0  0
    0.5067    2.7456    0.0000 C   0  0  0  0  0  0  0  0  0  0  0  0
   -2.1017   -1.7715    0.0000 N   0  0  0  0  0  0  0  0  0  0  0  0
    2.2324    2.7456    0.0000 C   0  0  0  0  0  0  0  0  0  0  0  0
   -1.2192    2.7456    0.0000 C   0  0  0  0  0  0  0  0  0  0  0  0
   -2.9515   -3.2489    0.0000 O   0  0  0  0  0  0  0  0  0  0  0  0
    3.0756    1.1768    0.0000 O   0  0  0  0  0  0  0  0  0  0  0  0
   -0.3759    3.2489    0.0000 C   0  0  0  0  0  0  0  0  0  0  0  0
   -1.2192   -3.2489    0.0000 N   0  0  0  0  0  0  0  0  0  0  0  0
   -2.7292   -0.5490    0.0000 C   0  0  0  0  0  0  0  0  0  0  0  0
   -3.0756    0.4249    0.0000 C   0  0  0  0  0  0  0  0  0  0  0  0
  2  1  1  0  0  0  0
  3  7  1  0  0  0  0
  4  5  1  0  0  0  0
  5  1  2  0  0  0  0
  6  3  1  0  0  0  0
  7  1  1  0  0  0  0
  8  2  1  0  0  0  0
  9  3  2  0  0  0  0
 10  8  1  0  0  0  0
 11 14  1  0  0  0  0
 12 13  1  0  0  0  0
 13  2  2  0  0  0  0
 14  9  1  0  0  0  0
 15 12  2  0  0  0  0
 16  5  1  0  0  0  0
 17 11  2  0  0  0  0
 18 10  2  0  0  0  0
 19 16  2  0  0  0  0
 20 11  1  0  0  0  0
  6 21  1  0  0  0  0
 22  6  1  0  0  0  0
  6  4  1  0  0  0  0
 19 13  1  0  0  0  0
 15 10  1  0  0  0  0
M  END
>  <IDNUMBER> (N005-0009)
N005-0009

>  <available> (N005-0009)
47

>  <H_acceptor> (N005-0009)
5

>  <H_donor> (N005-0009)
3

>  <B_rotN> (N005-0009)
2

>  <N_O> (N005-0009)
7

>  <logP> (N005-0009)
1.1

>  <logD> (N005-0009)
0.89

>  <logSw> (N005-0009)
-2.09

>  <PSA> (N005-0009)
103.01

>  <Chiral_centers> (N005-0009)
0

>  <Name> (N005-0009)
{[(9Z)-8,8-dimethyl-2-oxo-2H,8H,9H,10H-pyrano[2,3-h]chromen-9-ylidene]amino}urea

>  <Smile> (N005-0009)
CC1(C(Cc2c(O1)ccc1c2OC(C=C1)=O)=NNC(=O)N)C

>  <Collection> (N005-0009)
DC

>  <InChI Key> (N005-0009)
ICTXLTKMIDDGLH-BOPFTXTBSA-N

>  <PERCENTSP3> (N005-0009)
26.7

$$$$

  -ISIS-  -- StrEd -- 

 19 20  0  0  0  0  0  0  0  0999 V2000
   -1.2914   -1.5107    0.0000 N   0  3  0  0  0  0  0  0  0  0  0  0
    1.2963    1.0012    0.0000 C   0  0  0  0  0  0  0  0  0  0  0  0
   -1.2964   -0.5020    0.0000 C   0  0  0  0  0  0  0  0  0  0  0  0
    2.1590    1.5007    0.0000 C   0  0  0  0  0  0  0  0  0  0  0  0
   -0.4289   -0.0025    0.0000 C   0  0  0  0  0  0  0  0  0  0  0  0
    0.4287    1.5007    0.0000 O   0  0  0  0  0  0  0  0  0  0  0  0
   -0.4339    1.0012    0.0000 C   0  0  0  0  0  0  0  0  0  0  0  0
    1.2963    0.0025    0.0000 O   0  0  0  0  0  0  0  0  0  0  0  0
   -0.4289   -2.0102    0.0000 C   0  0  0  0  0  0  0  0  0  0  0  0
   -1.3014   -2.4995    0.0000 C   0  0  0  0  0  0  0  0  0  0  0  0
   -2.1640   -2.0102    0.0000 C   0  0  0  0  0  0  0  0  0  0  0  0
    0.4389   -1.5057    0.0000 C   0  0  0  0  0  0  0  0  0  0  0  0
    0.4336   -0.5020    0.0000 C   0  0  0  0  0  0  0  0  0  0  0  0
   -2.1640   -0.0025    0.0000 C   0  0  0  0  0  0  0  0  0  0  0  0
    2.1590    2.4995    0.0000 C   0  0  0  0  0  0  0  0  0  0  0  0
    3.0266    1.0064    0.0000 C   0  0  0  0  0  0  0  0  0  0  0  0
    1.1955    1.7581    0.0000 C   0  0  0  0  0  0  0  0  0  0  0  0
   -3.0266   -1.5107    0.0000 C   0  0  0  0  0  0  0  0  0  0  0  0
   -3.0266   -0.5020    0.0000 C   0  0  0  0  0  0  0  0  0  0  0  0
  2  6  1  0  0  0  0
  3  1  1  0  0  0  0
  4  2  1  0  0  0  0
  5  3  1  0  0  0  0
  6  7  1  0  0  0  0
  5  7  1  0  0  0  0
  8  2  2  0  0  0  0
  9  1  1  0  0  0  0
 10  1  1  0  0  0  0
 11  1  1  0  0  0  0
 12  9  1  0  0  0  0
 13 12  1  0  0  0  0
 14  3  1  0  0  0  0
 15  4  1  0  0  0  0
 16  4  1  0  0  0  0
 17  4  1  0  0  0  0
 18 11  1  0  0  0  0
 19 18  1  0  0  0  0
 14 19  1  0  0  0  0
  5 13  1  0  0  0  0
M  CHG  1   1   1
M  END
>  <IDNUMBER> (N085-0049)
N085-0049

>  <available> (N085-0049)
84

>  <Saltdata> (N085-0049)
I-

>  <H_acceptor> (N085-0049)
2

>  <H_donor> (N085-0049)
0

>  <B_rotN> (N085-0049)
4

>  <N_O> (N085-0049)
3

>  <logP> (N085-0049)
1.85

>  <logD> (N085-0049)
1.21

>  <logSw> (N085-0049)
-2.51

>  <PSA> (N085-0049)
26.3

>  <Chiral_centers> (N085-0049)
2

>  <Name> (N085-0049)
1-{[(2,2-dimethylpropanoyl)oxy]methyl}-5-methyl-decahydroquinolizin-5-ium

>  <Smile> (N085-0049)
C1CC2[N+](CC1)(C)CCCC2COC(C(C)(C)C)=O

>  <Collection> (N085-0049)
DC

>  <InChI Key> (N085-0049)
NZYBBNQLDAYWJE-UHFFFAOYSA-N

>  <PERCENTSP3> (N085-0049)
93.8

$$$$

  -ISIS-  -- StrEd -- 

 27 31  0  0  0  0  0  0  0  0999 V2000
    0.4451   -0.0248    0.0000 C   0  0  2  0  0  0  0  0  0  0  0  0
    1.2898    0.4430    0.0000 C   0  0  1  0  0  0  0  0  0  0  0  0
   -0.4285   -1.5443    0.0000 C   0  0  0  0  0  0  0  0  0  0  0  0
    0.4451   -1.0392    0.0000 C   0  0  0  0  0  0  0  0  0  0  0  0
    2.1259    1.0557    0.0000 O   0  0  0  0  0  0  0  0  0  0  0  0
   -1.2937   -1.0392    0.0000 C   0  0  0  0  0  0  0  0  0  0  0  0
   -2.1673   -1.5276    0.0000 O   0  0  0  0  0  0  0  0  0  0  0  0
   -2.1756   -2.5504    0.0000 C   0  0  0  0  0  0  0  0  0  0  0  0
   -0.4367   -2.5586    0.0000 C   0  0  0  0  0  0  0  0  0  0  0  0
   -1.3021   -3.0678    0.0000 O   0  0  0  0  0  0  0  0  0  0  0  0
   -0.4285    0.4803    0.0000 C   0  0  0  0  0  0  0  0  0  0  0  0
    0.5155    0.9978    0.0000 C   0  0  0  0  0  0  0  0  0  0  0  0
    1.3104   -1.5443    0.0000 C   0  0  0  0  0  0  0  0  0  0  0  0
    1.7700    2.0122    0.0000 C   0  0  0  0  0  0  0  0  0  0  0  0
    2.1840   -0.0248    0.0000 C   0  0  0  0  0  0  0  0  0  0  0  0
   -1.2937   -0.0248    0.0000 C   0  0  0  0  0  0  0  0  0  0  0  0
    2.1840   -1.0392    0.0000 C   0  0  0  0  0  0  0  0  0  0  0  0
    2.1674    3.5440    0.0000 O   0  0  0  0  0  0  0  0  0  0  0  0
    0.7846    1.9831    0.0000 C   0  0  0  0  0  0  0  0  0  0  0  0
    0.4079   -2.0824    0.0000 C   0  0  0  0  0  0  0  0  0  0  0  0
    0.2794    0.8901    0.0000 C   0  0  0  0  0  0  0  0  0  0  0  0
    2.7925    2.0493    0.0000 C   0  0  0  0  0  0  0  0  0  0  0  0
    1.4097    2.8858    0.0000 C   0  0  0  0  0  0  0  0  0  0  0  0
   -2.1881   -3.5440    0.0000 C   0  0  0  0  0  0  0  0  0  0  0  0
   -3.0492   -2.0617    0.0000 C   0  0  0  0  0  0  0  0  0  0  0  0
    3.0120    3.0140    0.0000 C   0  0  0  0  0  0  0  0  0  0  0  0
    3.0492    0.4720    0.0000 C   0  0  0  0  0  0  0  0  0  0  0  0
  2  1  1  0  0  0  0
  4  3  1  0  0  0  0
  4  1  1  0  0  0  0
  5  2  1  0  0  0  0
  6 16  1  0  0  0  0
  7  6  1  0  0  0  0
  8  7  1  0  0  0  0
  9  3  1  0  0  0  0
 10  9  1  0  0  0  0
 11  1  1  0  0  0  0
  2 12  1  1  0  0  0
 13  4  1  0  0  0  0
 14  5  1  0  0  0  0
 15  2  1  0  0  0  0
 16 11  1  0  0  0  0
 17 13  1  0  0  0  0
 18 23  1  0  0  0  0
 19 12  1  0  0  0  0
  3 20  1  0  0  0  0
  1 21  1  1  0  0  0
 22 14  1  0  0  0  0
 14 23  1  0  0  0  0
  8 24  1  0  0  0  0
 25  8  1  0  0  0  0
 26 22  1  0  0  0  0
 15 27  1  0  0  0  0
  3  6  1  0  0  0  0
 17 15  1  0  0  0  0
 19 14  1  0  0  0  0
 10  8  1  0  0  0  0
 26 18  1  0  0  0  0
M  END
>  <IDNUMBER> (N010-0010)
N010-0010

>  <available> (N010-0010)
82

>  <H_acceptor> (N010-0010)
4

>  <H_donor> (N010-0010)
0

>  <B_rotN> (N010-0010)
0

>  <N_O> (N010-0010)
4

>  <logP> (N010-0010)
2.57

>  <logD> (N010-0010)
2.29

>  <logSw> (N010-0010)
-4.21

>  <PSA> (N010-0010)
36.92

>  <Chiral_centers> (N010-0010)
7

>  <Name> (N010-0010)
3,3,6a,8,10b-pentamethyl-decahydro-1H-dispiro[naphtho[2,1-d][1,3]dioxine-7,2':5',3''-bis(oxolane)]

>  <Smile> (N010-0010)
CC1C2(C3(CCC4C(C)(COC(O4)(C)C)C3CC1)C)OC1(COCC1)CC2

>  <Collection> (N010-0010)
DC

>  <InChI Key> (N010-0010)
QETHKRDIJLVIMV-VYDFTRQXSA-N

>  <PERCENTSP3> (N010-0010)
100

$$$$

  -ISIS-  -- StrEd -- 

 24 28  0  0  0  0  0  0  0  0999 V2000
   -0.3605   -1.5836    0.0000 C   0  0  0  0  0  0  0  0  0  0  0  0
   -0.1503   -0.6040    0.0000 C   0  0  0  0  0  0  0  0  0  0  0  0
   -1.0456   -0.1172    0.0000 C   0  0  0  0  0  0  0  0  0  0  0  0
    0.5049   -2.0704    0.0000 N   0  0  0  0  0  0  0  0  0  0  0  0
   -1.0456    0.8924    0.0000 C   0  0  0  0  0  0  0  0  0  0  0  0
   -1.0157   -2.1364    0.0000 C   0  0  0  0  0  0  0  0  0  0  0  0
   -1.9110   -0.6280    0.0000 C   0  0  0  0  0  0  0  0  0  0  0  0
   -1.8810   -1.6376    0.0000 O   0  0  0  0  0  0  0  0  0  0  0  0
    0.8294   -0.4839    0.0000 C   0  0  0  0  0  0  0  0  0  0  0  0
   -0.1802    1.3912    0.0000 O   0  0  0  0  0  0  0  0  0  0  0  0
    1.2260   -1.4152    0.0000 C   0  0  0  0  0  0  0  0  0  0  0  0
   -0.1503    2.4008    0.0000 C   0  0  0  0  0  0  0  0  0  0  0  0
   -1.9110    1.4152    0.0000 C   0  0  0  0  0  0  0  0  0  0  0  0
   -1.9110    2.4368    0.0000 C   0  0  0  0  0  0  0  0  0  0  0  0
   -1.0456    2.9116    0.0000 C   0  0  0  0  0  0  0  0  0  0  0  0
   -2.7765   -0.1172    0.0000 C   0  0  0  0  0  0  0  0  0  0  0  0
    0.7392    2.8574    0.0000 O   0  0  0  0  0  0  0  0  0  0  0  0
   -2.8125    0.8684    0.0000 C   0  0  0  0  0  0  0  0  0  0  0  0
   -1.6827   -2.9116    0.0000 C   0  0  0  0  0  0  0  0  0  0  0  0
   -0.3847   -2.9116    0.0000 C   0  0  0  0  0  0  0  0  0  0  0  0
    1.4063    0.3155    0.0000 C   0  0  0  0  0  0  0  0  0  0  0  0
    2.2116   -1.5295    0.0000 C   0  0  0  0  0  0  0  0  0  0  0  0
    2.4159    0.2012    0.0000 C   0  0  0  0  0  0  0  0  0  0  0  0
    2.8125   -0.7181    0.0000 C   0  0  0  0  0  0  0  0  0  0  0  0
  2  1  2  0  0  0  0
  3  2  1  0  0  0  0
  4  1  1  0  0  0  0
  5  3  1  0  0  0  0
  6  1  1  0  0  0  0
  7  8  1  0  0  0  0
  8  6  1  0  0  0  0
  9  2  1  0  0  0  0
 10  5  1  0  0  0  0
 11  4  1  0  0  0  0
 12 10  1  0  0  0  0
 13  5  2  0  0  0  0
 14 13  1  0  0  0  0
 15 14  2  0  0  0  0
 16  7  1  0  0  0  0
 17 12  2  0  0  0  0
 18 16  2  0  0  0  0
  6 19  1  0  0  0  0
 20  6  1  0  0  0  0
 21  9  1  0  0  0  0
 22 11  1  0  0  0  0
 23 21  2  0  0  0  0
 24 22  2  0  0  0  0
 11  9  2  0  0  0  0
  3  7  2  0  0  0  0
 24 23  1  0  0  0  0
 13 18  1  0  0  0  0
 12 15  1  0  0  0  0
M  END
>  <IDNUMBER> (0080-0047)
0080-0047

>  <available> (0080-0047)
98

>  <H_acceptor> (0080-0047)
3

>  <H_donor> (0080-0047)
1

>  <B_rotN> (0080-0047)
0

>  <N_O> (0080-0047)
4

>  <logP> (0080-0047)
4.22

>  <logD> (0080-0047)
4.36

>  <logSw> (0080-0047)
-5.83

>  <PSA> (0080-0047)
51.32

>  <Chiral_centers> (0080-0047)
0

>  <Name> (0080-0047)
8,8-dimethyl-8,9-dihydro-2H-pyrano[2',3':5,6]chromeno[3,4-b]indol-2-one

>  <Smile> (0080-0047)
c1cc2[nH]c3C(C)(Oc4c(c3c2cc1)c1c(cc4)C=CC(O1)=O)C

>  <Collection> (0080-0047)
DC

>  <InChI Key> (0080-0047)
WAMKAPNUEHJAJT-UHFFFAOYSA-N

>  <PERCENTSP3> (0080-0047)
15

$$$$

  -ISIS-  -- StrEd -- 

 30 34  0  0  0  0  0  0  0  0999 V2000
    0.3956   -0.6890    0.0000 C   0  0  0  0  0  0  0  0  0  0  0  0
   -0.4174   -0.2194    0.0000 C   0  0  0  0  0  0  0  0  0  0  0  0
    1.2217   -0.2194    0.0000 C   0  0  0  0  0  0  0  0  0  0  0  0
    0.3956    1.1978    0.0000 C   0  0  0  0  0  0  0  0  0  0  0  0
    0.7303    2.1282    0.0000 C   0  0  3  0  0  0  0  0  0  0  0  0
   -1.2303   -0.6890    0.0000 C   0  0  2  0  0  0  0  0  0  0  0  0
    1.2217    0.7282    0.0000 C   0  0  0  0  0  0  0  0  0  0  0  0
   -0.6695    1.7934    0.0000 C   0  0  0  0  0  0  0  0  0  0  0  0
   -1.2303   -1.6281    0.0000 C   0  0  0  0  0  0  0  0  0  0  0  0
   -2.0259   -2.1065    0.0000 C   0  0  2  0  0  0  0  0  0  0  0  0
   -0.4174    0.7282    0.0000 C   0  0  0  0  0  0  0  0  0  0  0  0
    2.0259   -0.6890    0.0000 C   0  0  0  0  0  0  0  0  0  0  0  0
    2.0259    1.1978    0.0000 C   0  0  0  0  0  0  0  0  0  0  0  0
   -1.5217   -2.7541    0.0000 C   0  0  0  0  0  0  0  0  0  0  0  0
    0.3956   -1.6281    0.0000 C   0  0  0  0  0  0  0  0  0  0  0  0
    2.8477    0.7282    0.0000 C   0  0  0  0  0  0  0  0  0  0  0  0
    2.8477   -0.2194    0.0000 C   0  0  0  0  0  0  0  0  0  0  0  0
   -0.4174   -2.1065    0.0000 C   0  0  0  0  0  0  0  0  0  0  0  0
   -2.0563   -3.5801    0.0000 O   0  0  0  0  0  0  0  0  0  0  0  0
    0.9477    2.9194    0.0000 C   0  0  3  0  0  0  0  0  0  0  0  0
    2.0259   -1.6281    0.0000 O   0  0  0  0  0  0  0  0  0  0  0  0
    2.0259    2.1368    0.0000 O   0  0  0  0  0  0  0  0  0  0  0  0
   -2.0259   -0.2194    0.0000 C   0  0  0  0  0  0  0  0  0  0  0  0
   -0.5218   -2.7541    0.0000 O   0  0  0  0  0  0  0  0  0  0  0  0
   -1.2434    0.1979    0.0000 C   0  0  0  0  0  0  0  0  0  0  0  0
   -2.8477   -1.6281    0.0000 C   0  0  0  0  0  0  0  0  0  0  0  0
   -2.6303   -2.7236    0.0000 C   0  0  0  0  0  0  0  0  0  0  0  0
   -2.8477   -0.6890    0.0000 C   0  0  0  0  0  0  0  0  0  0  0  0
    1.8477    3.0585    0.0000 C   0  0  0  0  0  0  0  0  0  0  0  0
    0.2826    3.5801    0.0000 C   0  0  0  0  0  0  0  0  0  0  0  0
  2  1  1  0  0  0  0
  3  1  1  0  0  0  0
  4  5  1  0  0  0  0
  5  8  2  0  0  0  0
  6  2  1  0  0  0  0
  7  3  1  0  0  0  0
  8  1  1  0  0  0  0
  9 18  1  0  0  0  0
 10  9  1  0  0  0  0
 11  2  1  0  0  0  0
 12  3  1  0  0  0  0
 13  7  1  0  0  0  0
 10 14  1  6  0  0  0
 15  1  1  0  0  0  0
 16 17  2  0  0  0  0
 17 12  1  0  0  0  0
 18 15  1  0  0  0  0
 19 14  2  0  0  0  0
  5 20  1  4  0  0  0
 21 12  2  0  0  0  0
 22 13  2  0  0  0  0
 23  6  1  0  0  0  0
 24 14  1  0  0  0  0
  6 25  1  1  0  0  0
 26 10  1  0  0  0  0
 10 27  1  1  0  0  0
 28 23  1  0  0  0  0
 20 29  1  0  0  0  0
 30 20  1  0  0  0  0
  7  4  1  0  0  0  0
  4 11  1  0  0  0  0
  6  9  1  0  0  0  0
 16 13  1  0  0  0  0
 28 26  1  0  0  0  0
M  END
>  <IDNUMBER> (N075-0001)
N075-0001

>  <available> (N075-0001)
117

>  <H_acceptor> (N075-0001)
4

>  <H_donor> (N075-0001)
1

>  <B_rotN> (N075-0001)
3

>  <N_O> (N075-0001)
4

>  <logP> (N075-0001)
3.93

>  <logD> (N075-0001)
3.079

>  <logSw> (N075-0001)
-2.73

>  <PSA> (N075-0001)
71.44

>  <Chiral_centers> (N075-0001)
8

>  <Name> (N075-0001)
(5R,9R)-20-isopropyl-5,9-dimethyl-14,17-dioxopentacyclo[10.6.2.0~1,10~.0~4,9~.0~13,18~]icosa-15,19-diene-5-carboxylic acid

>  <Smile> (N075-0001)
C123C([C@@]4(C([C@](C(=O)O)(CCC4)C)CC1)C)CC(C(=C2)C(C)C)C1C3C(\C=C/C1=O)=O

>  <Collection> (N075-0001)
DC

>  <InChI Key> (N075-0001)
JEPJECUEGPLKEW-HNSLJKDNSA-N

>  <PERCENTSP3> (N075-0001)
73.1

$$$$

  -ISIS-  -- StrEd -- 

 27 32  0  0  0  0  0  0  0  0999 V2000
   -0.5384   -0.1805    0.0000 C   0  0  0  0  0  0  0  0  0  0  0  0
   -1.4430   -0.3921    0.0000 N   0  3  0  0  0  0  0  0  0  0  0  0
    1.0462   -0.1480    0.0000 C   0  0  0  0  0  0  0  0  0  0  0  0
   -0.5384    0.7110    0.0000 C   0  0  0  0  0  0  0  0  0  0  0  0
   -0.5384   -1.0233    0.0000 C   0  0  0  0  0  0  0  0  0  0  0  0
    0.2815    0.2815    0.0000 C   0  0  0  0  0  0  0  0  0  0  0  0
    0.2978   -1.5309    0.0000 C   0  0  1  0  0  0  0  0  0  0  0  0
   -1.2869   -1.4756    0.0000 C   0  0  2  0  0  0  0  0  0  0  0  0
    2.5299    1.0298    0.0000 C   0  0  0  0  0  0  0  0  0  0  0  0
    1.6643    1.0298    0.0000 C   0  0  0  0  0  0  0  0  0  0  0  0
    2.5299   -0.1480    0.0000 C   0  0  1  0  0  0  0  0  0  0  0  0
    1.0462   -1.0461    0.0000 C   0  0  0  0  0  0  0  0  0  0  0  0
    1.6643    0.2653    0.0000 C   0  0  0  0  0  0  0  0  0  0  0  0
    1.0006    1.4138    0.0000 C   0  0  0  0  0  0  0  0  0  0  0  0
   -2.1230   -1.9669    0.0000 C   0  0  0  0  0  0  0  0  0  0  0  0
    0.2815    1.0462    0.0000 C   0  0  0  0  0  0  0  0  0  0  0  0
   -0.9063   -0.8899    0.0000 O   0  5  0  0  0  0  0  0  0  0  0  0
   -1.3031    0.2587    0.0000 C   0  0  2  0  0  0  0  0  0  0  0  0
   -2.0450   -1.0298    0.0000 C   0  0  0  0  0  0  0  0  0  0  0  0
    3.2489    1.4983    0.0000 C   0  0  0  0  0  0  0  0  0  0  0  0
    1.0006    2.3282    0.0000 O   0  0  0  0  0  0  0  0  0  0  0  0
   -2.0384   -0.1708    0.0000 C   0  0  0  0  0  0  0  0  0  0  0  0
   -2.7315   -0.4213    0.0000 C   0  0  0  0  0  0  0  0  0  0  0  0
    3.1775   -0.7435    0.0000 O   0  0  0  0  0  0  0  0  0  0  0  0
   -1.3031   -2.3282    0.0000 C   0  0  0  0  0  0  0  0  0  0  0  0
   -1.3129    1.1079    0.0000 O   0  0  0  0  0  0  0  0  0  0  0  0
   -3.2489   -1.3682    0.0000 C   0  0  0  0  0  0  0  0  0  0  0  0
  4  2  1  0  0  0  0
  6  3  1  0  0  0  0
  1  4  1  0  0  0  0
  5  1  1  0  0  0  0
  6  1  1  0  0  0  0
  7  5  1  0  0  0  0
  8  5  1  0  0  0  0
  9 11  1  0  0  0  0
 10 14  1  0  0  0  0
  3 11  1  0  0  0  0
 12  3  1  0  0  0  0
 13  3  1  0  0  0  0
 14 16  1  0  0  0  0
  8 15  1  6  0  0  0
 16  6  1  0  0  0  0
 17  2  1  0  0  0  0
 18  1  1  0  0  0  0
 19 22  1  0  0  0  0
 20  9  2  0  0  0  0
 21 14  2  0  0  0  0
 22 18  1  0  0  0  0
 23  2  1  0  0  0  0
 11 24  1  1  0  0  0
  8 25  1  1  0  0  0
 18 26  1  6  0  0  0
 27 23  1  0  0  0  0
  7  4  1  6  0  0  0
 19  8  1  0  0  0  0
 13 10  1  0  0  0  0
 12  7  1  0  0  0  0
  2 15  1  0  0  0  0
  9 10  1  0  0  0  0
M  CHG  2   2   1  17  -1
M  END
>  <IDNUMBER> (N038-0221)
N038-0221

>  <available> (N038-0221)
160

>  <H_acceptor> (N038-0221)
4

>  <H_donor> (N038-0221)
2

>  <B_rotN> (N038-0221)
3

>  <N_O> (N038-0221)
5

>  <logP> (N038-0221)
0.49

>  <logD> (N038-0221)
2.29

>  <logSw> (N038-0221)
-2.83

>  <PSA> (N038-0221)
74.6

>  <Chiral_centers> (N038-0221)
10

>  <Name> (N038-0221)
(7R,10S,11S,14R,17S)-12-ethyl-7,17-dihydroxy-14-methyl-6-methylene-4-oxo-12-azoniahexacyclo[8.7.1.1~5,8~.0~1,11~.0~2,8~.0~14,18~]nonadecan-12-olate

>  <Smile> (N038-0221)
CC[N+]1(CC2(C3C4(C(O)CC2)C2C5(CC3C14)C(C(C(C(=O)C2)C5)=C)O)C)[O-]

>  <Collection> (N038-0221)
DC

>  <InChI Key> (N038-0221)
YSZTYEFJOQWJGA-CXKNNBMPSA-N

>  <PERCENTSP3> (N038-0221)
86.4

$$$$

  -ISIS-  -- StrEd -- 

 16 17  0  0  0  0  0  0  0  0999 V2000
   -0.8192   -1.0663    0.0000 N   0  3  0  0  0  0  0  0  0  0  0  0
   -0.8242   -0.0581    0.0000 C   0  0  0  0  0  0  0  0  0  0  0  0
    0.0428    0.4410    0.0000 C   0  0  1  0  0  0  0  0  0  0  0  0
    1.7669    1.4442    0.0000 C   0  0  0  0  0  0  0  0  0  0  0  0
    0.0378    1.4442    0.0000 C   0  0  0  0  0  0  0  0  0  0  0  0
    0.8997    1.9433    0.0000 O   0  0  0  0  0  0  0  0  0  0  0  0
    2.0239    0.4863    0.0000 O   0  0  0  0  0  0  0  0  0  0  0  0
    0.0428   -1.5654    0.0000 C   0  0  0  0  0  0  0  0  0  0  0  0
   -0.8242   -2.0543    0.0000 C   0  0  0  0  0  0  0  0  0  0  0  0
   -1.6913   -1.5654    0.0000 C   0  0  0  0  0  0  0  0  0  0  0  0
    0.9099   -1.0611    0.0000 C   0  0  0  0  0  0  0  0  0  0  0  0
    0.9049   -0.0581    0.0000 C   0  0  0  0  0  0  0  0  0  0  0  0
   -1.6913    0.4410    0.0000 C   0  0  0  0  0  0  0  0  0  0  0  0
    2.5583    2.0543    0.0000 C   0  0  0  0  0  0  0  0  0  0  0  0
   -2.5583   -1.0663    0.0000 C   0  0  0  0  0  0  0  0  0  0  0  0
   -2.5583   -0.0581    0.0000 C   0  0  0  0  0  0  0  0  0  0  0  0
  2  1  1  0  0  0  0
  3  2  1  0  0  0  0
  4  6  1  0  0  0  0
  3  5  1  1  0  0  0
  6  5  1  0  0  0  0
  7  4  2  0  0  0  0
  8  1  1  0  0  0  0
  9  1  1  0  0  0  0
 10  1  1  0  0  0  0
 11  8  1  0  0  0  0
 12 11  1  0  0  0  0
 13  2  1  0  0  0  0
 14  4  1  0  0  0  0
 15 10  1  0  0  0  0
 16 15  1  0  0  0  0
 16 13  1  0  0  0  0
 12  3  1  0  0  0  0
M  CHG  1   1   1
M  END
>  <IDNUMBER> (N085-0035)
N085-0035

>  <available> (N085-0035)
241

>  <Saltdata> (N085-0035)
I-

>  <H_acceptor> (N085-0035)
2

>  <H_donor> (N085-0035)
0

>  <B_rotN> (N085-0035)
3

>  <N_O> (N085-0035)
3

>  <logP> (N085-0035)
0.31

>  <logD> (N085-0035)
-0.2

>  <logSw> (N085-0035)
-3.6

>  <PSA> (N085-0035)
26.3

>  <Chiral_centers> (N085-0035)
2

>  <Name> (N085-0035)
1-[(acetyloxy)methyl]-5-methyl-decahydroquinolizin-5-ium

>  <Smile> (N085-0035)
C1CC2[N+](CC1)(C)CCCC2COC(=O)C

>  <Collection> (N085-0035)
DC

>  <InChI Key> (N085-0035)
IRJFKIJBEVHDQK-IYXRBSQSSA-N

>  <PERCENTSP3> (N085-0035)
92.3

$$$$

  -ISIS-  -- StrEd -- 

 28 30  0  0  0  0  0  0  0  0999 V2000
   -1.8465    0.9104    0.0000 C   0  0  2  0  0  0  0  0  0  0  0  0
   -1.2059    1.6520    0.0000 O   0  0  0  0  0  0  0  0  0  0  0  0
   -2.2854    0.1487    0.0000 C   0  0  0  0  0  0  0  0  0  0  0  0
   -1.9019    2.4543    0.0000 C   0  0  2  0  0  0  0  0  0  0  0  0
   -2.2906   -0.7292    0.0000 O   0  0  0  0  0  0  0  0  0  0  0  0
   -0.9636    0.9104    0.0000 C   0  0  0  0  0  0  0  0  0  0  0  0
    1.5085   -1.1982    0.0000 C   0  0  0  0  0  0  0  0  0  0  0  0
    1.0694    1.5008    0.0000 C   0  0  1  0  0  0  0  0  0  0  0  0
    2.3811    0.5625    0.0000 C   0  0  0  0  0  0  0  0  0  0  0  0
   -0.0100   -1.1782    0.0000 C   0  0  0  0  0  0  0  0  0  0  0  0
   -1.5338   -1.1782    0.0000 C   0  0  0  0  0  0  0  0  0  0  0  0
    2.3865   -0.3154    0.0000 O   0  0  0  0  0  0  0  0  0  0  0  0
    0.1918    1.5008    0.0000 C   0  0  2  0  0  0  0  0  0  0  0  0
    1.4984   -2.0711    0.0000 C   0  0  0  0  0  0  0  0  0  0  0  0
   -0.0202   -2.0560    0.0000 N   0  0  0  0  0  0  0  0  0  0  0  0
    1.5033   -0.3154    0.0000 C   0  0  0  0  0  0  0  0  0  0  0  0
   -1.5338   -2.0560    0.0000 C   0  0  0  0  0  0  0  0  0  0  0  0
   -3.1379    0.3758    0.0000 O   0  0  0  0  0  0  0  0  0  0  0  0
    3.1379    1.0066    0.0000 O   0  0  0  0  0  0  0  0  0  0  0  0
   -0.0202   -0.2599    0.0000 O   0  0  0  0  0  0  0  0  0  0  0  0
    0.7366   -2.4999    0.0000 C   0  0  0  0  0  0  0  0  0  0  0  0
   -0.7818   -2.4999    0.0000 C   0  0  0  0  0  0  0  0  0  0  0  0
    1.0694    0.6229    0.0000 O   0  0  0  0  0  0  0  0  0  0  0  0
   -2.7444    2.9337    0.0000 C   0  0  0  0  0  0  0  0  0  0  0  0
    1.0694    2.3788    0.0000 C   0  0  0  0  0  0  0  0  0  0  0  0
   -0.0254   -2.9337    0.0000 C   0  0  0  0  0  0  0  0  0  0  0  0
    0.1866    2.4999    0.0000 C   0  0  0  0  0  0  0  0  0  0  0  0
   -1.1403    2.8983    0.0000 H   0  0  0  0  0  0  0  0  0  0  0  0
  1  2  1  6  0  0  0
  3  1  1  0  0  0  0
  4  1  1  0  0  0  0
  5  3  1  0  0  0  0
  6  1  1  0  0  0  0
  7 10  1  0  0  0  0
  8 13  1  0  0  0  0
  9  8  1  0  0  0  0
 11 10  1  0  0  0  0
 11  5  1  0  0  0  0
 12  9  1  0  0  0  0
 13  6  1  0  0  0  0
 14  7  2  0  0  0  0
 15 22  1  0  0  0  0
 16 12  1  0  0  0  0
 17 11  1  0  0  0  0
 18  3  2  0  0  0  0
 19  9  2  0  0  0  0
 20 10  2  0  0  0  0
 21 14  1  0  0  0  0
 22 17  1  0  0  0  0
  8 23  1  1  0  0  0
 24  4  1  0  0  0  0
  8 25  1  6  0  0  0
 26 15  1  0  0  0  0
 13 27  1  1  0  0  0
  4 28  1  6  0  0  0
  4  2  1  6  0  0  0
 16  7  1  0  0  0  0
 21 15  1  0  0  0  0
M  END
>  <IDNUMBER> (N094-0018)
N094-0018

>  <available> (N094-0018)
283

>  <H_acceptor> (N094-0018)
8

>  <H_donor> (N094-0018)
1

>  <B_rotN> (N094-0018)
1

>  <N_O> (N094-0018)
8

>  <logP> (N094-0018)
0.49

>  <logD> (N094-0018)
0.04

>  <logSw> (N094-0018)
-0.72

>  <PSA> (N094-0018)
105.67

>  <Chiral_centers> (N094-0018)
5

>  <Name> (N094-0018)
7-hydroxy-3',6,7,14-tetramethyl-2,9-dioxa-14-azaspiro[bicyclo[9.5.1]heptadecane-4,2'-oxiran]-11-ene-3,8,17-trione

>  <Smile> (N094-0018)
CC1CC2(C(O2)C)C(=O)OC2C(C(COC(C1(C)O)=O)=CCN(C)CC2)=O

>  <Collection> (N094-0018)
DC

>  <InChI Key> (N094-0018)
CZQLULNMKQAIQL-NCLSEJKESA-N

>  <PERCENTSP3> (N094-0018)
73.7

$$$$

  -ISIS-  -- StrEd -- 

 29 32  0  0  0  0  0  0  0  0999 V2000
   -0.7152    0.7055    0.0000 C   0  0  2  0  0  0  0  0  0  0  0  0
    0.1334    1.2048    0.0000 C   0  0  1  0  0  0  0  0  0  0  0  0
   -0.7152   -0.2641    0.0000 C   0  0  0  0  0  0  0  0  0  0  0  0
   -1.5830   -0.7733    0.0000 C   0  0  1  0  0  0  0  0  0  0  0  0
    0.9913    1.6702    0.0000 O   0  0  0  0  0  0  0  0  0  0  0  0
    1.8447    2.1794    0.0000 C   0  0  0  0  0  0  0  0  0  0  0  0
    3.2604    1.2289    0.0000 C   0  0  0  0  0  0  0  0  0  0  0  0
    1.8447    1.2048    0.0000 C   0  0  0  0  0  0  0  0  0  0  0  0
   -1.5830    1.2048    0.0000 C   0  0  0  0  0  0  0  0  0  0  0  0
    0.1334    2.1794    0.0000 C   0  0  0  0  0  0  0  0  0  0  0  0
    0.1334   -0.7733    0.0000 C   0  0  0  0  0  0  0  0  0  0  0  0
    3.5172    2.1794    0.0000 O   0  0  0  0  0  0  0  0  0  0  0  0
   -2.4604   -0.2641    0.0000 C   0  0  2  0  0  0  0  0  0  0  0  0
    0.9721    0.7055    0.0000 C   0  0  1  0  0  0  0  0  0  0  0  0
   -3.9149   -1.1126    0.0000 C   0  0  0  0  0  0  0  0  0  0  0  0
   -1.5102   -2.6690    0.0000 C   0  0  0  0  0  0  0  0  0  0  0  0
   -2.4604    0.7055    0.0000 C   0  0  0  0  0  0  0  0  0  0  0  0
    3.9149    0.2158    0.0000 O   0  0  0  0  0  0  0  0  0  0  0  0
    0.9721   -0.2641    0.0000 C   0  0  0  0  0  0  0  0  0  0  0  0
    2.6785    2.6690    0.0000 C   0  0  0  0  0  0  0  0  0  0  0  0
   -0.6570   -2.1696    0.0000 O   0  0  0  0  0  0  0  0  0  0  0  0
   -3.4446   -1.9562    0.0000 O   0  0  0  0  0  0  0  0  0  0  0  0
    0.9721    2.6690    0.0000 C   0  0  0  0  0  0  0  0  0  0  0  0
   -2.3393   -1.1999    0.0000 C   0  0  0  0  0  0  0  0  0  0  0  0
   -3.4446   -0.2641    0.0000 O   0  0  0  0  0  0  0  0  0  0  0  0
   -0.7393    1.8690    0.0000 C   0  0  0  0  0  0  0  0  0  0  0  0
   -0.8848   -1.2289    0.0000 C   0  0  0  0  0  0  0  0  0  0  0  0
   -2.3393   -2.1696    0.0000 O   0  0  0  0  0  0  0  0  0  0  0  0
    1.8641    0.2981    0.0000 C   0  0  0  0  0  0  0  0  0  0  0  0
  2  1  1  0  0  0  0
  3  1  1  0  0  0  0
  4  3  1  0  0  0  0
  2  5  1  6  0  0  0
  6  5  1  0  0  0  0
  7  8  1  0  0  0  0
  8  6  1  0  0  0  0
  9  1  1  0  0  0  0
  2 10  1  1  0  0  0
 11  3  1  0  0  0  0
 12 20  1  0  0  0  0
 13 17  1  0  0  0  0
 14  2  1  0  0  0  0
 15 25  1  0  0  0  0
 16 28  1  0  0  0  0
 17  9  1  0  0  0  0
 18  7  2  0  0  0  0
 19 11  1  0  0  0  0
 20  6  1  0  0  0  0
 21 16  2  0  0  0  0
 22 15  2  0  0  0  0
 23 10  1  0  0  0  0
  4 24  1  6  0  0  0
 13 25  1  1  0  0  0
  1 26  1  1  0  0  0
  4 27  1  1  0  0  0
 28 24  1  0  0  0  0
 14 29  1  6  0  0  0
 13  4  1  0  0  0  0
 19 14  1  0  0  0  0
 23  6  1  0  0  0  0
  7 12  1  0  0  0  0
M  END
>  <IDNUMBER> (N088-0021)
N088-0021

>  <available> (N088-0021)
327

>  <H_acceptor> (N088-0021)
7

>  <H_donor> (N088-0021)
0

>  <B_rotN> (N088-0021)
5

>  <N_O> (N088-0021)
7

>  <logP> (N088-0021)
1.11

>  <logD> (N088-0021)
1.08

>  <logSw> (N088-0021)
-3.51

>  <PSA> (N088-0021)
88.13

>  <Chiral_centers> (N088-0021)
7

>  <Name> (N088-0021)
5-[(formyloxy)methyl]-2,5,8a-trimethyl-5''-oxo-octahydro-2H-dispiro[naphthalene-1,2':5',3''-bis(oxolane)]-6-yl formate

>  <Smile> (N088-0021)
CC1C2(C3(CCC(C(C3CC1)(C)COC=O)OC=O)C)CCC1(O2)COC(=O)C1

>  <Collection> (N088-0021)
DC

>  <InChI Key> (N088-0021)
DMAUEZXPKXXMOS-RHKNDRLFSA-N

>  <PERCENTSP3> (N088-0021)
86.4

$$$$

  -ISIS-  -- StrEd -- 

 24 25  0  0  0  0  0  0  0  0999 V2000
   -1.2844   -0.7007    0.0000 C   0  0  0  0  0  0  0  0  0  0  0  0
   -2.1433   -0.1993    0.0000 C   0  0  0  0  0  0  0  0  0  0  0  0
   -1.2844   -1.7078    0.0000 C   0  0  0  0  0  0  0  0  0  0  0  0
   -2.1433   -2.2009    0.0000 N   0  0  0  0  0  0  0  0  0  0  0  0
   -3.0231   -0.7007    0.0000 C   0  0  0  0  0  0  0  0  0  0  0  0
   -3.0231   -1.7078    0.0000 C   0  0  0  0  0  0  0  0  0  0  0  0
    3.9231    1.1158    0.0000 C   0  0  0  0  0  0  0  0  0  0  0  0
   -0.4295   -2.2009    0.0000 O   0  0  0  0  0  0  0  0  0  0  0  0
    0.4707    1.2022    0.0000 C   0  0  0  0  0  0  0  0  0  0  0  0
   -0.3966    0.7502    0.0000 C   0  0  0  0  0  0  0  0  0  0  0  0
    3.0558    0.6391    0.0000 C   0  0  0  0  0  0  0  0  0  0  0  0
   -2.1433    0.7873    0.0000 O   0  0  0  0  0  0  0  0  0  0  0  0
    2.1968    1.1651    0.0000 C   0  0  0  0  0  0  0  0  0  0  0  0
    1.3296    0.7009    0.0000 C   0  0  0  0  0  0  0  0  0  0  0  0
    4.3958    0.2446    0.0000 O   0  0  0  0  0  0  0  0  0  0  0  0
   -1.2557    1.2638    0.0000 C   0  0  0  0  0  0  0  0  0  0  0  0
    3.0354   -0.3555    0.0000 O   0  0  0  0  0  0  0  0  0  0  0  0
   -3.9107   -0.1993    0.0000 C   0  0  0  0  0  0  0  0  0  0  0  0
   -3.9107   -2.2009    0.0000 C   0  0  0  0  0  0  0  0  0  0  0  0
    4.7985    1.5885    0.0000 C   0  0  0  0  0  0  0  0  0  0  0  0
    3.4503    1.9831    0.0000 C   0  0  0  0  0  0  0  0  0  0  0  0
    0.4911    2.2009    0.0000 C   0  0  0  0  0  0  0  0  0  0  0  0
   -4.7985   -0.7007    0.0000 C   0  0  0  0  0  0  0  0  0  0  0  0
   -4.7985   -1.7078    0.0000 C   0  0  0  0  0  0  0  0  0  0  0  0
  2  1  2  0  0  0  0
  3  1  1  0  0  0  0
  4  3  1  0  0  0  0
  5  2  1  0  0  0  0
  6  4  1  0  0  0  0
 11  7  1  0  0  0  0
  8  3  2  0  0  0  0
  9 10  2  0  0  0  0
 10 16  1  0  0  0  0
 11 13  1  0  0  0  0
 12  2  1  0  0  0  0
 13 14  1  0  0  0  0
 14  9  1  0  0  0  0
 15  7  1  0  0  0  0
 16 12  1  0  0  0  0
 17 11  1  0  0  0  0
 18  5  1  0  0  0  0
 19  6  1  0  0  0  0
 20  7  1  0  0  0  0
 21  7  1  0  0  0  0
 22  9  1  0  0  0  0
 23 18  2  0  0  0  0
 24 19  2  0  0  0  0
  6  5  2  0  0  0  0
 24 23  1  0  0  0  0
M  END
>  <IDNUMBER> (N042-0040)
N042-0040

>  <available> (N042-0040)
482

>  <H_acceptor> (N042-0040)
4

>  <H_donor> (N042-0040)
3

>  <B_rotN> (N042-0040)
9

>  <N_O> (N042-0040)
5

>  <logP> (N042-0040)
1.87

>  <logD> (N042-0040)
2.39

>  <logSw> (N042-0040)
-4.09

>  <PSA> (N042-0040)
78.79

>  <Chiral_centers> (N042-0040)
1

>  <Name> (N042-0040)
4-{[(2E)-6,7-dihydroxy-3,7-dimethyloct-2-en-1-yl]oxy}-1,2-dihydroquinolin-2-one

>  <Smile> (N042-0040)
c1cc2[nH]c(cc(OCC=C(CCC(C(C)(O)C)O)C)c2cc1)=O

>  <Collection> (N042-0040)
NC

>  <InChI Key> (N042-0040)
PBWIOAMUZKICDN-JLHYYAGUSA-N

>  <PERCENTSP3> (N042-0040)
42.1

$$$$

  -ISIS-  -- StrEd -- 

 33 38  0  0  0  0  0  0  0  0999 V2000
    0.7666   -0.5831    0.0000 C   0  0  1  0  0  0  0  0  0  0  0  0
   -0.1157   -1.0855    0.0000 C   0  0  1  0  0  0  0  0  0  0  0  0
    1.6359    0.9282    0.0000 C   0  0  0  0  0  0  0  0  0  0  0  0
    2.4965    0.4259    0.0000 C   0  0  0  0  0  0  0  0  0  0  0  0
   -1.8454   -1.0855    0.0000 C   0  0  2  0  0  0  0  0  0  0  0  0
    0.7666    0.4347    0.0000 C   0  0  0  0  0  0  0  0  0  0  0  0
    1.6447    1.9023    0.0000 C   0  0  0  0  0  0  0  0  0  0  0  0
    2.8110    1.3781    0.0000 O   0  0  0  0  0  0  0  0  0  0  0  0
    3.6497    0.1506    0.0000 C   0  0  0  0  0  0  0  0  0  0  0  0
   -0.9762   -0.5611    0.0000 C   0  0  0  0  0  0  0  0  0  0  0  0
   -1.8454   -2.0812    0.0000 C   0  0  0  0  0  0  0  0  0  0  0  0
   -2.7147   -2.5838    0.0000 C   0  0  1  0  0  0  0  0  0  0  0  0
    2.4833    2.3958    0.0000 C   0  0  2  0  0  0  0  0  0  0  0  0
    1.6359   -1.0635    0.0000 C   0  0  0  0  0  0  0  0  0  0  0  0
   -0.1157   -2.0812    0.0000 C   0  0  0  0  0  0  0  0  0  0  0  0
   -3.5971   -2.0812    0.0000 C   0  0  0  0  0  0  0  0  0  0  0  0
    2.4965   -0.5611    0.0000 C   0  0  0  0  0  0  0  0  0  0  0  0
   -0.1157    0.9369    0.0000 C   0  0  0  0  0  0  0  0  0  0  0  0
   -2.7147   -0.5611    0.0000 C   0  0  0  0  0  0  0  0  0  0  0  0
   -0.9762    0.4347    0.0000 C   0  0  0  0  0  0  0  0  0  0  0  0
   -0.9762   -2.5838    0.0000 C   0  0  0  0  0  0  0  0  0  0  0  0
    3.3439    0.9282    0.0000 C   0  0  0  0  0  0  0  0  0  0  0  0
    4.4447   -0.4478    0.0000 O   0  0  0  0  0  0  0  0  0  0  0  0
    3.3439    1.9112    0.0000 C   0  0  0  0  0  0  0  0  0  0  0  0
   -3.5971   -1.0855    0.0000 C   0  0  0  0  0  0  0  0  0  0  0  0
   -4.4447   -2.5838    0.0000 O   0  0  0  0  0  0  0  0  0  0  0  0
    0.7666   -1.4305    0.0000 C   0  0  0  0  0  0  0  0  0  0  0  0
   -0.0940   -0.2381    0.0000 C   0  0  0  0  0  0  0  0  0  0  0  0
   -1.8454   -0.2032    0.0000 C   0  0  0  0  0  0  0  0  0  0  0  0
   -1.9897   -3.0032    0.0000 C   0  0  0  0  0  0  0  0  0  0  0  0
   -3.4398   -3.0336    0.0000 C   0  0  0  0  0  0  0  0  0  0  0  0
    3.0600    3.0336    0.0000 C   0  0  0  0  0  0  0  0  0  0  0  0
    1.6883    2.9202    0.0000 C   0  0  0  0  0  0  0  0  0  0  0  0
  2  1  1  0  0  0  0
  6  3  1  0  0  0  0
  4 17  1  0  0  0  0
 10  5  1  0  0  0  0
  6  1  1  0  0  0  0
  7  3  1  0  0  0  0
  8  7  1  0  0  0  0
  4  9  1  0  0  0  0
 10  2  1  0  0  0  0
 11 21  1  0  0  0  0
 12 11  1  0  0  0  0
 13  7  1  0  0  0  0
 14  1  1  0  0  0  0
 15  2  1  0  0  0  0
 16 12  1  0  0  0  0
 17 14  1  0  0  0  0
 18  6  1  0  0  0  0
 19  5  1  0  0  0  0
 20 18  1  0  0  0  0
 21 15  1  0  0  0  0
 22  4  1  0  0  0  0
 23  9  2  0  0  0  0
 24 22  1  0  0  0  0
 25 19  1  0  0  0  0
 26 16  2  0  0  0  0
  1 27  1  6  0  0  0
  2 28  1  1  0  0  0
  5 29  1  1  0  0  0
 12 30  1  6  0  0  0
 12 31  1  1  0  0  0
 13 32  1  1  0  0  0
 13 33  1  6  0  0  0
  3  4  1  0  0  0  0
 10 20  1  0  0  0  0
  9  8  1  0  0  0  0
 11  5  1  0  0  0  0
 24 13  1  0  0  0  0
 16 25  1  0  0  0  0
M  END
>  <IDNUMBER> (N066-0060)
N066-0060

>  <available> (N066-0060)
930

>  <H_acceptor> (N066-0060)
3

>  <H_donor> (N066-0060)
0

>  <B_rotN> (N066-0060)
0

>  <N_O> (N066-0060)
3

>  <logP> (N066-0060)
6.21

>  <logD> (N066-0060)
7.24

>  <logSw> (N066-0060)
-9.02

>  <PSA> (N066-0060)
43.37

>  <Chiral_centers> (N066-0060)
9

>  <Name> (N066-0060)
4,5,9,9,13,20,20-HEPTAMETHYL-24-OXAHEXACYCLO[17.3.2.0^(1,18).0^(4,17).0^(5,14).0^(8,13)]TETRACOSANE-10,23-DIONE

>  <Smile> (N066-0060)
CC1(C2C3C(CCC4(C3CCC3C4(C)CCC4C3(CCC(C4(C)C)=O)C)C)(C(O2)=O)CC1)C

>  <Collection> (N066-0060)
DC

>  <InChI Key> (N066-0060)
NJVHLJAPSJFFSB-MFEMRDSTSA-N

>  <PERCENTSP3> (N066-0060)
93.3

$$$$

  -ISIS-  -- StrEd -- 

 25 28  0  0  0  0  0  0  0  0999 V2000
    0.2875    0.5053    0.0000 C   0  0  2  0  0  0  0  0  0  0  0  0
   -1.3581    0.5053    0.0000 C   0  0  2  0  0  0  0  0  0  0  0  0
   -1.3581   -0.4123    0.0000 C   0  0  1  0  0  0  0  0  0  0  0  0
   -0.5369    0.9840    0.0000 C   0  0  0  0  0  0  0  0  0  0  0  0
   -2.1626   -0.9176    0.0000 C   0  0  2  0  0  0  0  0  0  0  0  0
    1.0854    1.9649    0.0000 C   0  0  1  0  0  0  0  0  0  0  0  0
    1.0920    0.9908    0.0000 C   0  0  0  0  0  0  0  0  0  0  0  0
   -1.6839   -1.7221    0.0000 C   0  0  0  0  0  0  0  0  0  0  0  0
    1.2284   -0.1097    0.0000 C   0  0  0  0  0  0  0  0  0  0  0  0
    2.2325    1.2468    0.0000 C   0  0  1  0  0  0  0  0  0  0  0  0
   -0.5369   -0.9076    0.0000 C   0  0  0  0  0  0  0  0  0  0  0  0
   -0.5369    1.9416    0.0000 C   0  0  0  0  0  0  0  0  0  0  0  0
    0.2875   -0.4123    0.0000 C   0  0  0  0  0  0  0  0  0  0  0  0
    0.2543    2.3937    0.0000 C   0  0  0  0  0  0  0  0  0  0  0  0
   -2.1794   -2.5765    0.0000 O   0  0  0  0  0  0  0  0  0  0  0  0
   -2.1626    0.9840    0.0000 C   0  0  0  0  0  0  0  0  0  0  0  0
   -1.3581    1.4528    0.0000 C   0  0  0  0  0  0  0  0  0  0  0  0
   -0.6799   -1.7221    0.0000 O   0  0  0  0  0  0  0  0  0  0  0  0
   -2.9839   -0.4123    0.0000 C   0  0  0  0  0  0  0  0  0  0  0  0
    3.0803    1.3964    0.0000 O   0  0  0  0  0  0  0  0  0  0  0  0
   -3.0803   -1.5161    0.0000 C   0  0  0  0  0  0  0  0  0  0  0  0
    2.1228    2.5932    0.0000 C   0  0  0  0  0  0  0  0  0  0  0  0
   -2.9839    0.5053    0.0000 C   0  0  0  0  0  0  0  0  0  0  0  0
   -0.1779   -2.5932    0.0000 C   0  0  0  0  0  0  0  0  0  0  0  0
   -1.3482   -1.1005    0.0000 H   0  0  0  0  0  0  0  0  0  0  0  0
  4  2  1  0  0  0  0
  3 11  1  0  0  0  0
  4  1  1  0  0  0  0
  5  3  1  0  0  0  0
  6  7  1  0  0  0  0
  7  1  1  0  0  0  0
  5  8  1  6  0  0  0
  1  9  1  6  0  0  0
 10  9  1  6  0  0  0
 11 13  1  0  0  0  0
 12  4  1  0  0  0  0
 13  1  1  0  0  0  0
 14  6  1  0  0  0  0
 15  8  2  0  0  0  0
 16  2  1  0  0  0  0
  2 17  1  6  0  0  0
 18  8  1  0  0  0  0
 19  5  1  0  0  0  0
 20 10  1  0  0  0  0
  5 21  1  1  0  0  0
  6 22  1  1  0  0  0
 23 16  1  0  0  0  0
 24 18  1  0  0  0  0
  3 25  1  1  0  0  0
  6 10  1  6  0  0  0
  2  3  1  0  0  0  0
 12 14  1  0  0  0  0
 23 19  1  0  0  0  0
M  END
>  <IDNUMBER> (N062-0011)
N062-0011

>  <available> (N062-0011)
351

>  <H_acceptor> (N062-0011)
3

>  <H_donor> (N062-0011)
1

>  <B_rotN> (N062-0011)
3

>  <N_O> (N062-0011)
3

>  <logP> (N062-0011)
4.05

>  <logD> (N062-0011)
5.27

>  <logSw> (N062-0011)
-4.87

>  <PSA> (N062-0011)
46.53

>  <Chiral_centers> (N062-0011)
7

>  <Name> (N062-0011)
METHYL 14-HYDROXY-5,9,13-TRIMETHYLTETRACYCLO[11.2.1.0^(1,10).0^(4,9)]HEXADECANE-5-CARBOXYLATE

>  <Smile> (N062-0011)
COC(C1(C2C(C)(CCC1)C1C3(CC2)CC(C(C3)O)(C)CC1)C)=O

>  <Collection> (N062-0011)
DC

>  <InChI Key> (N062-0011)
LYFJGTIFFFMUCR-OATJNCPRSA-N

>  <PERCENTSP3> (N062-0011)
95.2

$$$$

  -ISIS-  -- StrEd -- 

 18 19  0  0  0  0  0  0  0  0999 V2000
    1.3042    0.2449    0.0000 C   0  0  0  0  0  0  0  0  0  0  0  0
    0.4386   -0.2449    0.0000 N   0  0  0  0  0  0  0  0  0  0  0  0
    2.1700   -0.2449    0.0000 O   0  0  0  0  0  0  0  0  0  0  0  0
    1.3042    1.2473    0.0000 C   0  0  0  0  0  0  0  0  0  0  0  0
   -0.4386    0.2449    0.0000 C   0  0  0  0  0  0  0  0  0  0  0  0
   -1.3042   -0.2449    0.0000 C   0  0  0  0  0  0  0  0  0  0  0  0
   -1.3042   -1.2473    0.0000 C   0  0  0  0  0  0  0  0  0  0  0  0
   -2.1700    0.2449    0.0000 O   0  0  0  0  0  0  0  0  0  0  0  0
    0.4386    1.7484    0.0000 C   0  0  0  0  0  0  0  0  0  0  0  0
    2.1700    1.7484    0.0000 C   0  0  0  0  0  0  0  0  0  0  0  0
   -2.1700   -1.7485    0.0000 C   0  0  0  0  0  0  0  0  0  0  0  0
   -0.4386   -1.7485    0.0000 C   0  0  0  0  0  0  0  0  0  0  0  0
    2.1700    2.7508    0.0000 C   0  0  0  0  0  0  0  0  0  0  0  0
    0.4386    2.7508    0.0000 C   0  0  0  0  0  0  0  0  0  0  0  0
   -0.4386   -2.7508    0.0000 C   0  0  0  0  0  0  0  0  0  0  0  0
   -2.1700   -2.7508    0.0000 C   0  0  0  0  0  0  0  0  0  0  0  0
    1.3042    3.2520    0.0000 C   0  0  0  0  0  0  0  0  0  0  0  0
   -1.3042   -3.2520    0.0000 C   0  0  0  0  0  0  0  0  0  0  0  0
  2  1  1  0  0  0  0
  3  1  2  0  0  0  0
  4  1  1  0  0  0  0
  5  2  1  0  0  0  0
  6  5  1  0  0  0  0
  7  6  1  0  0  0  0
  8  6  1  0  0  0  0
  9  4  2  0  0  0  0
 10  4  1  0  0  0  0
 11  7  1  0  0  0  0
 12  7  2  0  0  0  0
 13 10  2  0  0  0  0
 14  9  1  0  0  0  0
 15 12  1  0  0  0  0
 16 11  2  0  0  0  0
 17 13  1  0  0  0  0
 18 15  2  0  0  0  0
 14 17  2  0  0  0  0
 16 18  1  0  0  0  0
M  END
>  <IDNUMBER> (N039-0020)
N039-0020

>  <available> (N039-0020)
234

>  <H_acceptor> (N039-0020)
2

>  <H_donor> (N039-0020)
2

>  <B_rotN> (N039-0020)
6

>  <N_O> (N039-0020)
3

>  <logP> (N039-0020)
2.11

>  <logD> (N039-0020)
2.69

>  <logSw> (N039-0020)
-2.94

>  <PSA> (N039-0020)
49.33

>  <Chiral_centers> (N039-0020)
1

>  <Name> (N039-0020)
N-(2-hydroxy-2-phenylethyl)benzamide

>  <Smile> (N039-0020)
c1ccc(C(CNC(c2ccccc2)=O)O)cc1

>  <Collection> (N039-0020)
DC

>  <InChI Key> (N039-0020)
JZUOCQXDQFRPAF-UHFFFAOYSA-N

>  <PERCENTSP3> (N039-0020)
13.3

$$$$

  -ISIS-  -- StrEd -- 

 21 23  0  0  0  0  0  0  0  0999 V2000
    0.5519   -0.4934    0.0000 C   0  0  0  0  0  0  0  0  0  0  0  0
    1.4139   -1.0082    0.0000 N   0  0  0  0  0  0  0  0  0  0  0  0
    2.2759    0.5012    0.0000 C   0  0  0  0  0  0  0  0  0  0  0  0
    2.2759   -0.4934    0.0000 C   0  0  0  0  0  0  0  0  0  0  0  0
    0.5519    0.5012    0.0000 C   0  0  0  0  0  0  0  0  0  0  0  0
    1.4139    1.0044    0.0000 C   0  0  0  0  0  0  0  0  0  0  0  0
   -0.2985   -1.0082    0.0000 C   0  0  0  0  0  0  0  0  0  0  0  0
   -1.1800   -0.4934    0.0000 C   0  0  0  0  0  0  0  0  0  0  0  0
   -0.2985    1.0044    0.0000 C   0  0  0  0  0  0  0  0  0  0  0  0
    3.2317   -0.8093    0.0000 O   0  0  0  0  0  0  0  0  0  0  0  0
   -2.0576   -1.0082    0.0000 O   0  0  0  0  0  0  0  0  0  0  0  0
    3.2317    0.8171    0.0000 C   0  0  0  0  0  0  0  0  0  0  0  0
   -2.9391   -0.4934    0.0000 C   0  0  0  0  0  0  0  0  0  0  0  0
    3.8011    0.0135    0.0000 C   0  0  0  0  0  0  0  0  0  0  0  0
   -1.1800    0.5012    0.0000 C   0  0  0  0  0  0  0  0  0  0  0  0
   -2.9469    0.5012    0.0000 O   0  0  0  0  0  0  0  0  0  0  0  0
   -0.2985   -1.9992    0.0000 O   0  0  0  0  0  0  0  0  0  0  0  0
    1.4139    2.0069    0.0000 O   0  0  0  0  0  0  0  0  0  0  0  0
   -3.8011   -0.9889    0.0000 C   0  0  0  0  0  0  0  0  0  0  0  0
    0.5519   -2.4944    0.0000 C   0  0  0  0  0  0  0  0  0  0  0  0
    2.2759    2.4944    0.0000 C   0  0  0  0  0  0  0  0  0  0  0  0
  2  1  1  0  0  0  0
  3  6  2  0  0  0  0
  4  2  2  0  0  0  0
  5  1  2  0  0  0  0
  6  5  1  0  0  0  0
  7  1  1  0  0  0  0
  8  7  2  0  0  0  0
  9  5  1  0  0  0  0
 10  4  1  0  0  0  0
 11  8  1  0  0  0  0
 12  3  1  0  0  0  0
 13 11  1  0  0  0  0
 14 10  1  0  0  0  0
 15  8  1  0  0  0  0
 16 13  2  0  0  0  0
 17  7  1  0  0  0  0
 18  6  1  0  0  0  0
 19 13  1  0  0  0  0
 20 17  1  0  0  0  0
 21 18  1  0  0  0  0
  4  3  1  0  0  0  0
  9 15  2  0  0  0  0
 12 14  2  0  0  0  0
M  END
>  <IDNUMBER> (N058-0069)
N058-0069

>  <available> (N058-0069)
34

>  <H_acceptor> (N058-0069)
6

>  <H_donor> (N058-0069)
0

>  <B_rotN> (N058-0069)
4

>  <N_O> (N058-0069)
6

>  <logP> (N058-0069)
1.56

>  <logD> (N058-0069)
1.82

>  <logSw> (N058-0069)
-4.49

>  <PSA> (N058-0069)
70.79

>  <Chiral_centers> (N058-0069)
0

>  <Name> (N058-0069)
4,8-dimethoxyfuro[2,3-b]quinolin-7-yl acetate

>  <Smile> (N058-0069)
COc1c2C=COc2[nH0]c2c(c(OC(=O)C)ccc12)OC

>  <Collection> (N058-0069)
NC

>  <InChI Key> (N058-0069)
ZUWGVZILVGPQQG-UHFFFAOYSA-N

>  <PERCENTSP3> (N058-0069)
20

$$$$

  -ISIS-  -- StrEd -- 

 24 27  0  0  0  0  0  0  0  0999 V2000
    0.9766    1.0150    0.0000 C   0  0  0  0  0  0  0  0  0  0  0  0
    0.0417    0.5989    0.0000 C   0  0  0  0  0  0  0  0  0  0  0  0
    1.7899    0.4002    0.0000 C   0  0  0  0  0  0  0  0  0  0  0  0
    0.0417   -0.4194    0.0000 C   0  0  0  0  0  0  0  0  0  0  0  0
   -0.8551   -0.9254    0.0000 C   0  0  0  0  0  0  0  0  0  0  0  0
    2.0397    2.4432    0.0000 N   0  0  0  0  0  0  0  0  0  0  0  0
    2.7570    0.7973    0.0000 C   0  0  0  0  0  0  0  0  0  0  0  0
    1.0982    2.0398    0.0000 C   0  0  0  0  0  0  0  0  0  0  0  0
    2.8851    1.8284    0.0000 C   0  0  0  0  0  0  0  0  0  0  0  0
    1.3738    1.0727    0.0000 C   0  0  0  0  0  0  0  0  0  0  0  0
   -0.8551   -1.9372    0.0000 C   0  0  0  0  0  0  0  0  0  0  0  0
    0.0417   -2.4432    0.0000 N   0  0  0  0  0  0  0  0  0  0  0  0
   -1.7452   -0.4194    0.0000 C   0  0  0  0  0  0  0  0  0  0  0  0
    3.5447    0.2147    0.0000 C   0  0  0  0  0  0  0  0  0  0  0  0
    1.4057    1.7323    0.0000 C   0  0  0  0  0  0  0  0  0  0  0  0
   -1.7452   -2.4432    0.0000 C   0  0  0  0  0  0  0  0  0  0  0  0
    3.4231   -0.7524    0.0000 C   0  0  0  0  0  0  0  0  0  0  0  0
   -0.8997    1.1945    0.0000 O   0  0  0  0  0  0  0  0  0  0  0  0
   -2.6354   -0.9254    0.0000 C   0  0  0  0  0  0  0  0  0  0  0  0
    0.9319   -1.9372    0.0000 C   0  0  0  0  0  0  0  0  0  0  0  0
   -2.6354   -1.9372    0.0000 C   0  0  0  0  0  0  0  0  0  0  0  0
    0.9319   -0.9254    0.0000 C   0  0  0  0  0  0  0  0  0  0  0  0
   -3.5254   -0.4194    0.0000 O   0  0  0  0  0  0  0  0  0  0  0  0
   -3.5447    0.5989    0.0000 C   0  0  0  0  0  0  0  0  0  0  0  0
  2  1  1  0  0  0  0
  3  1  1  0  0  0  0
  4  2  1  0  0  0  0
  5  4  2  0  0  0  0
  6  8  1  0  0  0  0
  7  3  1  0  0  0  0
  8  1  1  0  0  0  0
  9  6  1  0  0  0  0
 10  3  1  0  0  0  0
 11  5  1  0  0  0  0
 12 20  1  0  0  0  0
 13  5  1  0  0  0  0
  7 14  1  0  0  0  0
 15  6  1  0  0  0  0
 16 11  1  0  0  0  0
 17 14  2  0  0  0  0
 18  2  1  0  0  0  0
 19 13  2  0  0  0  0
 20 22  2  0  0  0  0
 21 19  1  0  0  0  0
 22  4  1  0  0  0  0
 23 19  1  0  0  0  0
 24 23  1  0  0  0  0
 10 15  1  0  0  0  0
  7  9  1  0  0  0  0
 12 11  2  0  0  0  0
 21 16  2  0  0  0  0
M  END
>  <IDNUMBER> (N004-0015)
N004-0015

>  <available> (N004-0015)
29

>  <H_acceptor> (N004-0015)
4

>  <H_donor> (N004-0015)
1

>  <B_rotN> (N004-0015)
5

>  <N_O> (N004-0015)
4

>  <logP> (N004-0015)
2.34

>  <logD> (N004-0015)
2.31

>  <logSw> (N004-0015)
-2.34

>  <PSA> (N004-0015)
45.59

>  <Chiral_centers> (N004-0015)
4

>  <Name> (N004-0015)
{5-ethenyl-1-azabicyclo[2.2.2]octan-3-yl}(6-methoxyquinolin-4-yl)methanol

>  <Smile> (N004-0015)
COc1cc2c(C(C3CN4CC(C3CC4)C=C)O)cc[nH0]c2cc1

>  <Collection> (N004-0015)
DC

>  <InChI Key> (N004-0015)
AQMBZJFAYLBACQ-UHFFFAOYSA-N

>  <PERCENTSP3> (N004-0015)
45

$$$$

  -ISIS-  -- StrEd -- 

 31 34  0  0  0  0  0  0  0  0999 V2000
    0.7213    0.9161    0.0000 C   0  0  0  0  0  0  0  0  0  0  0  0
    1.4824    0.4707    0.0000 C   0  0  0  0  0  0  0  0  0  0  0  0
    2.2661    0.9161    0.0000 C   0  0  0  0  0  0  0  0  0  0  0  0
   -1.7248   -0.6116    0.0000 C   0  0  0  0  0  0  0  0  0  0  0  0
   -0.0622    0.4707    0.0000 C   0  0  0  0  0  0  0  0  0  0  0  0
   -0.8175    0.9161    0.0000 C   0  0  0  0  0  0  0  0  0  0  0  0
    0.7213    1.8125    0.0000 C   0  0  0  0  0  0  0  0  0  0  0  0
   -2.4859   -1.5418    0.0000 C   0  0  0  0  0  0  0  0  0  0  0  0
    2.2661    1.8125    0.0000 C   0  0  0  0  0  0  0  0  0  0  0  0
   -3.9063   -1.5418    0.0000 C   0  0  0  0  0  0  0  0  0  0  0  0
    1.4824    2.2859    0.0000 O   0  0  0  0  0  0  0  0  0  0  0  0
   -2.4859    0.4199    0.0000 O   0  0  0  0  0  0  0  0  0  0  0  0
   -1.7248    0.4707    0.0000 O   0  0  0  0  0  0  0  0  0  0  0  0
   -4.6900   -0.6116    0.0000 C   0  0  0  0  0  0  0  0  0  0  0  0
   -3.9063    0.4199    0.0000 C   0  0  0  0  0  0  0  0  0  0  0  0
   -0.8175    1.8125    0.0000 C   0  0  0  0  0  0  0  0  0  0  0  0
    3.1172    0.3748    0.0000 C   0  0  0  0  0  0  0  0  0  0  0  0
   -0.0622    2.2859    0.0000 C   0  0  0  0  0  0  0  0  0  0  0  0
    3.1286    2.3535    0.0000 C   0  0  0  0  0  0  0  0  0  0  0  0
    3.9854    0.8484    0.0000 C   0  0  0  0  0  0  0  0  0  0  0  0
    3.9965    1.8519    0.0000 C   0  0  0  0  0  0  0  0  0  0  0  0
    1.4824   -0.4087    0.0000 O   0  0  0  0  0  0  0  0  0  0  0  0
   -0.0622   -0.4087    0.0000 O   0  0  0  0  0  0  0  0  0  0  0  0
   -2.4859   -2.3535    0.0000 O   0  0  0  0  0  0  0  0  0  0  0  0
   -3.9289   -0.5834    0.0000 O   0  0  0  0  0  0  0  0  0  0  0  0
   -4.6900   -1.6093    0.0000 O   0  0  0  0  0  0  0  0  0  0  0  0
   -1.6743    2.2464    0.0000 O   0  0  0  0  0  0  0  0  0  0  0  0
    4.8196    0.3354    0.0000 O   0  0  0  0  0  0  0  0  0  0  0  0
    4.8759    2.3535    0.0000 O   0  0  0  0  0  0  0  0  0  0  0  0
   -3.9063    1.0514    0.0000 C   0  0  0  0  0  0  0  0  0  0  0  0
   -4.8759    1.5022    0.0000 O   0  0  0  0  0  0  0  0  0  0  0  0
  2  1  1  0  0  0  0
  3  2  1  0  0  0  0
  4 13  1  0  0  0  0
  5  1  1  0  0  0  0
  6  5  2  0  0  0  0
  7  1  2  0  0  0  0
  8  4  1  0  0  0  0
  9 11  1  0  0  0  0
 10  8  1  0  0  0  0
 11  7  1  0  0  0  0
 12  4  1  0  0  0  0
 13  6  1  0  0  0  0
 14 15  1  0  0  0  0
 15 12  1  0  0  0  0
 16 18  2  0  0  0  0
 17  3  1  0  0  0  0
 18  7  1  0  0  0  0
 19  9  1  0  0  0  0
 20 17  2  0  0  0  0
 21 19  2  0  0  0  0
 22  2  2  0  0  0  0
 23  5  1  0  0  0  0
  8 24  1  0  0  0  0
 10 25  1  0  0  0  0
 14 26  1  0  0  0  0
 27 16  1  0  0  0  0
 28 20  1  0  0  0  0
 29 21  1  0  0  0  0
 15 30  1  0  0  0  0
 31 30  1  0  0  0  0
  6 16  1  0  0  0  0
  9  3  2  0  0  0  0
 20 21  1  0  0  0  0
 10 14  1  0  0  0  0
M  END
>  <IDNUMBER> (N027-0017)
N027-0017

>  <available> (N027-0017)
7

>  <H_acceptor> (N027-0017)
12

>  <H_donor> (N027-0017)
8

>  <B_rotN> (N027-0017)
11

>  <N_O> (N027-0017)
12

>  <logP> (N027-0017)
-0.15

>  <logD> (N027-0017)
-2.8

>  <logSw> (N027-0017)
-2.94

>  <PSA> (N027-0017)
206.6

>  <Chiral_centers> (N027-0017)
5

>  <Name> (N027-0017)
1,3,6,7-tetrahydroxy-2-{[3,4,5-trihydroxy-6-(hydroxymethyl)oxan-2-yl]oxy}-9H-xanthen-9-one

>  <Smile> (N027-0017)
OCC1OC(Oc2c(c3c(Oc4c(C3=O)cc(c(c4)O)O)cc2O)O)C(C(C1O)O)O

>  <Collection> (N027-0017)
DC

>  <InChI Key> (N027-0017)
TXKFRRCKZWJXBW-UHFFFAOYSA-N

>  <PERCENTSP3> (N027-0017)
31.6

$$$$

  -ISIS-  -- StrEd -- 

 37 42  0  0  0  0  0  0  0  0999 V2000
   -1.4761   -1.2663    0.0000 C   0  0  0  0  0  0  0  0  0  0  0  0
    1.1365   -0.7475    0.0000 C   0  0  0  0  0  0  0  0  0  0  0  0
    1.1365    0.2901    0.0000 C   0  0  0  0  0  0  0  0  0  0  0  0
   -1.4761   -2.2728    0.0000 C   0  0  0  0  0  0  0  0  0  0  0  0
   -0.6177   -0.7475    0.0000 C   0  0  2  0  0  0  0  0  0  0  0  0
    0.2593   -1.2663    0.0000 C   0  0  1  0  0  0  0  0  0  0  0  0
    2.3038    1.4946    0.0000 C   0  0  0  0  0  0  0  0  0  0  0  0
    2.0382    0.5435    0.0000 C   0  0  0  0  0  0  0  0  0  0  0  0
   -1.4761   -0.2717    0.0000 C   0  0  0  0  0  0  0  0  0  0  0  0
    3.2550    1.8467    0.0000 C   0  0  0  0  0  0  0  0  0  0  0  0
    3.2550    2.7360    0.0000 C   0  0  0  0  0  0  0  0  0  0  0  0
    2.0692   -1.0870    0.0000 C   0  0  0  0  0  0  0  0  0  0  0  0
    0.2286    0.7535    0.0000 C   0  0  0  0  0  0  0  0  0  0  0  0
   -2.3347   -0.7475    0.0000 C   0  0  0  0  0  0  0  0  0  0  0  0
   -0.6177    0.2471    0.0000 C   0  0  0  0  0  0  0  0  0  0  0  0
   -2.3347   -2.7794    0.0000 C   0  0  0  0  0  0  0  0  0  0  0  0
   -2.3347    0.2160    0.0000 N   0  0  0  0  0  0  0  0  0  0  0  0
    2.2914    3.1251    0.0000 O   0  0  0  0  0  0  0  0  0  0  0  0
    2.6312   -0.2595    0.0000 C   0  0  0  0  0  0  0  0  0  0  0  0
    0.2593   -2.2728    0.0000 C   0  0  0  0  0  0  0  0  0  0  0  0
   -0.6177   -2.7794    0.0000 C   0  0  0  0  0  0  0  0  0  0  0  0
    1.5936    2.3964    0.0000 C   0  0  0  0  0  0  0  0  0  0  0  0
    4.1134    3.2117    0.0000 O   0  0  0  0  0  0  0  0  0  0  0  0
    1.1365   -1.7540    0.0000 O   0  0  0  0  0  0  0  0  0  0  0  0
   -1.4761   -3.2240    0.0000 O   0  0  0  0  0  0  0  0  0  0  0  0
   -3.2240   -2.2728    0.0000 C   0  0  1  0  0  0  0  0  0  0  0  0
    1.1365    1.2537    0.0000 C   0  0  0  0  0  0  0  0  0  0  0  0
   -3.2240   -1.2663    0.0000 C   0  0  0  0  0  0  0  0  0  0  0  0
   -2.3347    1.2105    0.0000 C   0  0  0  0  0  0  0  0  0  0  0  0
   -4.1134   -2.7794    0.0000 O   0  0  0  0  0  0  0  0  0  0  0  0
   -3.1930    1.6984    0.0000 C   0  0  0  0  0  0  0  0  0  0  0  0
   -1.4761    1.7293    0.0000 C   0  0  0  0  0  0  0  0  0  0  0  0
   -1.4761    2.6929    0.0000 C   0  0  0  0  0  0  0  0  0  0  0  0
   -3.1930    2.7237    0.0000 C   0  0  0  0  0  0  0  0  0  0  0  0
   -2.3469    3.2240    0.0000 C   0  0  0  0  0  0  0  0  0  0  0  0
    0.2593   -0.3028    0.0000 H   0  0  0  0  0  0  0  0  0  0  0  0
   -0.6177   -1.7233    0.0000 H   0  0  0  0  0  0  0  0  0  0  0  0
  2  6  1  0  0  0  0
  3 13  1  0  0  0  0
  4  1  1  0  0  0  0
  5  1  1  0  0  0  0
  6  5  1  0  0  0  0
  8  7  1  0  0  0  0
  8  3  1  0  0  0  0
  1  9  1  0  0  0  0
 10  7  2  0  0  0  0
 11 10  1  0  0  0  0
 12  2  1  0  0  0  0
 13 15  1  0  0  0  0
 14  1  1  0  0  0  0
 15  5  1  0  0  0  0
 16  4  1  0  0  0  0
 17  9  2  0  0  0  0
 18 22  1  0  0  0  0
 19 12  1  0  0  0  0
 20  6  1  0  0  0  0
 21  4  1  0  0  0  0
 22  7  1  0  0  0  0
 23 11  2  0  0  0  0
  2 24  1  0  0  0  0
  4 25  1  0  0  0  0
 26 28  1  0  0  0  0
  3 27  1  0  0  0  0
 28 14  1  0  0  0  0
 29 17  1  0  0  0  0
 26 30  1  6  0  0  0
 31 29  1  0  0  0  0
 32 29  1  0  0  0  0
 33 32  1  0  0  0  0
 34 31  1  0  0  0  0
 35 33  1  0  0  0  0
  6 36  1  1  0  0  0
  5 37  1  6  0  0  0
 20 21  1  0  0  0  0
 26 16  1  0  0  0  0
  2  3  1  0  0  0  0
  8 19  1  0  0  0  0
 34 35  1  0  0  0  0
 18 11  1  0  0  0  0
M  END
>  <IDNUMBER> (N023-0008)
N023-0008

>  <available> (N023-0008)
19

>  <H_acceptor> (N023-0008)
6

>  <H_donor> (N023-0008)
3

>  <B_rotN> (N023-0008)
6

>  <N_O> (N023-0008)
6

>  <logP> (N023-0008)
3.35

>  <logD> (N023-0008)
3.71

>  <logSw> (N023-0008)
-3.35

>  <PSA> (N023-0008)
99.35

>  <Chiral_centers> (N023-0008)
8

>  <Name> (N023-0008)
4-{9a-[(E)-(cyclohexylimino)methyl]-3a,5a,7-trihydroxy-11a-methyl-hexadecahydro-1H-cyclopenta[a]phenanthren-1-yl}-2,5-dihydrofuran-2-one

>  <Smile> (N023-0008)
C1CCC(N=CC23CCC(CC2(O)CCC2C4(CCC(C4(CCC23)C)C2=CC(=O)OC2)O)O)CC1

>  <Collection> (N023-0008)
DC

>  <InChI Key> (N023-0008)
YLGZIVFTZIXXIM-BXDGXKOCSA-N

>  <PERCENTSP3> (N023-0008)
86.2

$$$$

  -ISIS-  -- StrEd -- 

 26 28  0  0  0  0  0  0  0  0999 V2000
    0.6913    0.3713    0.0000 C   0  0  0  0  0  0  0  0  0  0  0  0
    1.6772    0.6103    0.0000 C   0  0  0  0  0  0  0  0  0  0  0  0
   -0.0982    0.9773    0.0000 C   0  0  0  0  0  0  0  0  0  0  0  0
   -0.9475    0.4737    0.0000 C   0  0  0  0  0  0  0  0  0  0  0  0
    2.4453   -0.0257    0.0000 C   0  0  0  0  0  0  0  0  0  0  0  0
   -1.8265    0.9773    0.0000 C   0  0  0  0  0  0  0  0  0  0  0  0
    0.2604   -0.5164    0.0000 C   0  0  0  0  0  0  0  0  0  0  0  0
   -0.0982    1.9802    0.0000 C   0  0  0  0  0  0  0  0  0  0  0  0
    2.4624   -1.0199    0.0000 C   0  0  0  0  0  0  0  0  0  0  0  0
   -1.8265    1.9802    0.0000 C   0  0  0  0  0  0  0  0  0  0  0  0
    1.6942   -1.6559    0.0000 C   0  0  0  0  0  0  0  0  0  0  0  0
    0.6913   -1.4211    0.0000 C   0  0  0  0  0  0  0  0  0  0  0  0
   -0.9475    2.4838    0.0000 C   0  0  0  0  0  0  0  0  0  0  0  0
    2.0953    1.4808    0.0000 C   0  0  0  0  0  0  0  0  0  0  0  0
    0.6913    2.6075    0.0000 C   0  0  0  0  0  0  0  0  0  0  0  0
    3.3543   -1.4384    0.0000 O   0  0  0  0  0  0  0  0  0  0  0  0
    1.6772    2.3813    0.0000 C   0  0  0  0  0  0  0  0  0  0  0  0
   -0.9475   -0.5164    0.0000 O   0  0  0  0  0  0  0  0  0  0  0  0
    1.9503   -2.6075    0.0000 N   0  0  0  0  0  0  0  0  0  0  0  0
   -2.7185    0.4737    0.0000 O   0  0  0  0  0  0  0  0  0  0  0  0
    3.0898    1.4808    0.0000 N   0  0  0  0  0  0  0  0  0  0  0  0
   -2.7185    2.5051    0.0000 O   0  0  0  0  0  0  0  0  0  0  0  0
    3.5805    0.6188    0.0000 C   0  0  0  0  0  0  0  0  0  0  0  0
   -1.8052   -1.0199    0.0000 C   0  0  0  0  0  0  0  0  0  0  0  0
   -3.5805    0.9773    0.0000 C   0  0  0  0  0  0  0  0  0  0  0  0
   -3.5805    2.0016    0.0000 C   0  0  0  0  0  0  0  0  0  0  0  0
  2  1  1  0  0  0  0
  3  1  1  0  0  0  0
  4  3  1  0  0  0  0
  5  2  2  0  0  0  0
  6  4  2  0  0  0  0
  7  1  2  0  0  0  0
  8  3  2  0  0  0  0
  9  5  1  0  0  0  0
 10 13  2  0  0  0  0
 11 12  2  0  0  0  0
 12  7  1  0  0  0  0
 13  8  1  0  0  0  0
 14  2  1  0  0  0  0
 15  8  1  0  0  0  0
 16  9  2  0  0  0  0
 17 14  1  0  0  0  0
 18  4  1  0  0  0  0
 19 11  1  0  0  0  0
 20  6  1  0  0  0  0
 21 14  1  0  0  0  0
 22 10  1  0  0  0  0
 23 21  1  0  0  0  0
 24 18  1  0  0  0  0
 25 20  1  0  0  0  0
 26 22  1  0  0  0  0
 11  9  1  0  0  0  0
 17 15  1  0  0  0  0
 10  6  1  0  0  0  0
M  END
>  <IDNUMBER> (N059-0002)
N059-0002

>  <available> (N059-0002)
65

>  <Saltdata> (N059-0002)
CH3OH

>  <H_acceptor> (N059-0002)
6

>  <H_donor> (N059-0002)
3

>  <B_rotN> (N059-0002)
4

>  <N_O> (N059-0002)
6

>  <logP> (N059-0002)
0.69

>  <logD> (N059-0002)
-0.53

>  <logSw> (N059-0002)
-3.05

>  <PSA> (N059-0002)
82.81

>  <Chiral_centers> (N059-0002)
1

>  <Name> (N059-0002)
10-amino-1,2,3-trimethoxy-7-(methylamino)-6,7-dihydrobenzo[a]heptalen-9(5H)-one

>  <Smile> (N059-0002)
C=1/2\C(=C/C(\C(=C/C1)\N)=O)\C(CCc1c2c(c(c(c1)OC)OC)OC)NC

>  <Collection> (N059-0002)
NC

>  <InChI Key> (N059-0002)
OZXQLNSEYAQEKY-UHFFFAOYSA-N

>  <PERCENTSP3> (N059-0002)
35

$$$$

  -ISIS-  -- StrEd -- 

 22 23  0  0  0  0  0  0  0  0999 V2000
    2.0860   -0.0885    0.0000 C   0  0  0  0  0  0  0  0  0  0  0  0
    3.6041    0.4053    0.0000 C   0  0  0  0  0  0  0  0  0  0  0  0
    3.0323   -0.4053    0.0000 C   0  0  0  0  0  0  0  0  0  0  0  0
    1.3126   -0.7180    0.0000 C   0  0  0  0  0  0  0  0  0  0  0  0
    2.0860    0.8991    0.0000 C   0  0  0  0  0  0  0  0  0  0  0  0
    3.0323    1.2159    0.0000 O   0  0  0  0  0  0  0  0  0  0  0  0
   -0.1069    0.4258    0.0000 C   0  0  0  0  0  0  0  0  0  0  0  0
    0.3456    1.3146    0.0000 C   0  0  0  0  0  0  0  0  0  0  0  0
    0.3456   -0.5040    0.0000 C   0  0  0  0  0  0  0  0  0  0  0  0
    1.3126    1.5327    0.0000 C   0  0  0  0  0  0  0  0  0  0  0  0
    4.6121    0.3848    0.0000 O   0  0  0  0  0  0  0  0  0  0  0  0
   -4.0979   -1.2322    0.0000 C   0  0  0  0  0  0  0  0  0  0  0  0
    3.3696   -1.3721    0.0000 C   0  0  0  0  0  0  0  0  0  0  0  0
   -4.5917   -0.3436    0.0000 O   0  0  0  0  0  0  0  0  0  0  0  0
    1.5305   -1.6889    0.0000 O   0  0  0  0  0  0  0  0  0  0  0  0
   -1.0944    0.4465    0.0000 C   0  0  0  0  0  0  0  0  0  0  0  0
   -3.1104   -1.2528    0.0000 O   0  0  0  0  0  0  0  0  0  0  0  0
   -0.3044    2.0838    0.0000 C   0  0  0  0  0  0  0  0  0  0  0  0
   -0.2839   -1.2938    0.0000 C   0  0  0  0  0  0  0  0  0  0  0  0
   -4.6121   -2.0838    0.0000 C   0  0  0  0  0  0  0  0  0  0  0  0
   -2.5960   -0.3848    0.0000 C   0  0  0  0  0  0  0  0  0  0  0  0
   -1.6088   -0.4053    0.0000 C   0  0  0  0  0  0  0  0  0  0  0  0
  2  3  1  0  0  0  0
  1  3  1  0  0  0  0
  4  1  1  0  0  0  0
  5  1  1  0  0  0  0
  6  5  1  0  0  0  0
  7  9  1  0  0  0  0
  8 10  1  0  0  0  0
  9  4  1  0  0  0  0
 10  5  1  0  0  0  0
 11  2  2  0  0  0  0
 12 17  1  0  0  0  0
 13  3  2  0  0  0  0
 14 12  2  0  0  0  0
  4 15  1  0  0  0  0
 16  7  1  0  0  0  0
 17 21  1  0  0  0  0
 18  8  1  0  0  0  0
  9 19  1  0  0  0  0
 20 12  1  0  0  0  0
 21 22  1  0  0  0  0
 22 16  1  0  0  0  0
  6  2  1  0  0  0  0
  8  7  2  0  0  0  0
M  END
>  <IDNUMBER> (N002-0024)
N002-0024

>  <available> (N002-0024)
69

>  <H_acceptor> (N002-0024)
5

>  <H_donor> (N002-0024)
1

>  <B_rotN> (N002-0024)
6

>  <N_O> (N002-0024)
5

>  <logP> (N002-0024)
1.135

>  <logD> (N002-0024)
2.50099

>  <logSw> (N002-0024)
-3.4631

>  <PSA> (N002-0024)
72.83

>  <Chiral_centers> (N002-0024)
4

>  <Name> (N002-0024)
3-{4-hydroxy-5,7-dimethyl-3-methylidene-2-oxo-2H,3H,3aH,4H,5H,8H,8aH-cyclohepta[b]furan-6-yl}propyl acetate

>  <Smile> (N002-0024)
C1(C(C2C(C(C(CCCOC(=O)C)=C(CC2O1)C)C)O)=C)=O

>  <Collection> (N002-0024)
DC

>  <InChI Key> (N002-0024)
QKVABRCMWRXFAF-UHFFFAOYSA-N

>  <PERCENTSP3> (N002-0024)
64.7

$$$$

  -ISIS-  -- StrEd -- 

 44 49  0  0  0  0  0  0  0  0999 V2000
    1.3586    0.1141    0.0000 C   0  0  0  0  0  0  0  0  0  0  0  0
    3.6917    0.5572    0.0000 C   0  0  0  0  0  0  0  0  0  0  0  0
    3.6917    1.4632    0.0000 C   0  0  0  0  0  0  0  0  0  0  0  0
    1.3586   -0.7916    0.0000 C   0  0  0  0  0  0  0  0  0  0  0  0
    2.1405    0.5572    0.0000 C   0  0  2  0  0  0  0  0  0  0  0  0
    2.9096    0.1141    0.0000 C   0  0  1  0  0  0  0  0  0  0  0  0
    4.8323    2.6361    0.0000 C   0  0  0  0  0  0  0  0  0  0  0  0
    4.5324    1.6976    0.0000 C   0  0  0  0  0  0  0  0  0  0  0  0
   -4.0827   -2.7598    0.0000 C   0  0  0  0  0  0  0  0  0  0  0  0
   -0.9873   -2.7598    0.0000 C   0  0  0  0  0  0  0  0  0  0  0  0
   -1.7824   -1.7106    0.0000 O   0  0  0  0  0  0  0  0  0  0  0  0
   -1.7824   -3.7307    0.0000 C   0  0  0  0  0  0  0  0  0  0  0  0
    4.2520    3.3857    0.0000 C   0  0  0  0  0  0  0  0  0  0  0  0
    1.3720    1.3069    0.0000 C   0  0  0  0  0  0  0  0  0  0  0  0
   -3.3202   -3.7307    0.0000 C   0  0  0  0  0  0  0  0  0  0  0  0
   -3.3202   -1.7106    0.0000 C   0  0  0  0  0  0  0  0  0  0  0  0
    4.8323    4.2327    0.0000 C   0  0  0  0  0  0  0  0  0  0  0  0
    4.5324    0.2902    0.0000 C   0  0  0  0  0  0  0  0  0  0  0  0
    2.9096    1.8998    0.0000 C   0  0  0  0  0  0  0  0  0  0  0  0
    1.3720    2.4341    0.0000 N   0  0  0  0  0  0  0  0  0  0  0  0
    0.5442   -1.2152    0.0000 C   0  0  0  0  0  0  0  0  0  0  0  0
    0.5442    0.5572    0.0000 C   0  0  0  0  0  0  0  0  0  0  0  0
    2.1405    1.4632    0.0000 C   0  0  0  0  0  0  0  0  0  0  0  0
   -4.0827   -3.7960    0.0000 O   0  0  0  0  0  0  0  0  0  0  0  0
    5.7706    3.9330    0.0000 O   0  0  0  0  0  0  0  0  0  0  0  0
    5.0473    1.0070    0.0000 C   0  0  0  0  0  0  0  0  0  0  0  0
    2.9096   -0.7916    0.0000 C   0  0  0  0  0  0  0  0  0  0  0  0
   -4.9429   -4.3433    0.0000 C   0  0  0  0  0  0  0  0  0  0  0  0
    2.1405   -1.2152    0.0000 C   0  0  0  0  0  0  0  0  0  0  0  0
    5.7706    2.9619    0.0000 C   0  0  0  0  0  0  0  0  0  0  0  0
   -0.9741   -1.2610    0.0000 O   0  0  0  0  0  0  0  0  0  0  0  0
   -0.1728   -0.7916    0.0000 C   0  0  0  0  0  0  0  0  0  0  0  0
    4.5000    5.2298    0.0000 O   0  0  0  0  0  0  0  0  0  0  0  0
    3.6917   -0.4007    0.0000 O   0  0  0  0  0  0  0  0  0  0  0  0
   -5.7706   -3.8221    0.0000 O   0  0  0  0  0  0  0  0  0  0  0  0
    1.3586   -1.9647    0.0000 O   0  0  0  0  0  0  0  0  0  0  0  0
   -0.1728    0.1141    0.0000 C   0  0  0  0  0  0  0  0  0  0  0  0
    3.6917    2.3364    0.0000 C   0  0  0  0  0  0  0  0  0  0  0  0
   -3.3202   -4.6040    0.0000 O   0  0  0  0  0  0  0  0  0  0  0  0
   -3.3202   -0.8829    0.0000 C   0  0  0  0  0  0  0  0  0  0  0  0
   -4.9299   -5.2298    0.0000 C   0  0  0  0  0  0  0  0  0  0  0  0
   -2.4276   -5.1840    0.0000 C   0  0  0  0  0  0  0  0  0  0  0  0
    2.9096    0.8962    0.0000 H   0  0  0  0  0  0  0  0  0  0  0  0
    2.1405   -0.3030    0.0000 H   0  0  0  0  0  0  0  0  0  0  0  0
  2  6  1  0  0  0  0
  3 19  1  0  0  0  0
  4  1  1  0  0  0  0
  5  1  1  0  0  0  0
  6  5  1  0  0  0  0
  8  7  1  0  0  0  0
  8  3  1  0  0  0  0
  9 15  1  0  0  0  0
 10 31  1  0  0  0  0
 11 10  1  0  0  0  0
 12 10  1  0  0  0  0
 13  7  2  0  0  0  0
  1 14  1  0  0  0  0
 15 12  1  0  0  0  0
 16 11  1  0  0  0  0
 17 13  1  0  0  0  0
 18  2  1  0  0  0  0
 19 23  1  0  0  0  0
 20 14  3  0  0  0  0
 21  4  1  0  0  0  0
 22  1  1  0  0  0  0
 23  5  1  0  0  0  0
  9 24  1  0  0  0  0
 25 30  1  0  0  0  0
 26 18  1  0  0  0  0
 27  6  1  0  0  0  0
 28 24  1  0  0  0  0
 29  4  1  0  0  0  0
 30  7  1  0  0  0  0
 32 31  1  0  0  0  0
 32 37  1  0  0  0  0
 33 17  2  0  0  0  0
  2 34  1  0  0  0  0
 35 28  2  0  0  0  0
  4 36  1  0  0  0  0
 37 22  1  0  0  0  0
  3 38  1  0  0  0  0
 15 39  1  0  0  0  0
 16 40  1  0  0  0  0
 41 28  1  0  0  0  0
 42 39  1  0  0  0  0
  6 43  1  1  0  0  0
  5 44  1  6  0  0  0
 29 27  1  0  0  0  0
 21 32  1  0  0  0  0
  3  2  1  0  0  0  0
 26  8  1  0  0  0  0
  9 16  1  0  0  0  0
 17 25  1  0  0  0  0
M  END
>  <IDNUMBER> (0449-0078)
0449-0078

>  <available> (0449-0078)
100

>  <H_acceptor> (0449-0078)
10

>  <H_donor> (0449-0078)
2

>  <B_rotN> (0449-0078)
9

>  <N_O> (0449-0078)
10

>  <logP> (0449-0078)
2.15

>  <logD> (0449-0078)
0.93

>  <logSw> (0449-0078)
-4.22

>  <PSA> (0449-0078)
144.54

>  <Chiral_centers> (0449-0078)
12

>  <Name> (0449-0078)
6-{[9a-cyano-3a,5a-dihydroxy-11a-methyl-1-(5-oxo-2,5-dihydrofuran-3-yl)-hexadecahydro-1H-cyclopenta[a]phenanthren-7-yl]oxy}-4-methoxy-2-methyloxan-3-yl acetate

>  <Smile> (0449-0078)
COC1C(C(OC(OC2CC3(C(CC2)(C#N)C2C(C4(O)CCC(C4(CC2)C)C2=CC(OC2)=O)CC3)O)C1)C)OC(=O)C

>  <Collection> (0449-0078)
DC

>  <InChI Key> (0449-0078)
OQFQIRJFROWFPR-PJXHVPEXSA-N

>  <PERCENTSP3> (0449-0078)
84.4

$$$$

  -ISIS-  -- StrEd -- 

 51 55  0  0  0  0  0  0  0  0999 V2000
    4.0264   -2.2071    0.0000 C   0  0  0  0  0  0  0  0  0  0  0  0
    2.5696   -2.2255    0.0000 C   0  0  0  0  0  0  0  0  0  0  0  0
    4.5037   -3.1616    0.0000 C   0  0  0  0  0  0  0  0  0  0  0  0
   -0.5301    2.4053    0.0000 C   0  0  0  0  0  0  0  0  0  0  0  0
    1.8072   -3.2359    0.0000 C   0  0  0  0  0  0  0  0  0  0  0  0
    5.2909   -1.5251    0.0000 O   0  0  0  0  0  0  0  0  0  0  0  0
    0.2141    2.9073    0.0000 C   0  0  0  0  0  0  0  0  0  0  0  0
    3.2824   -3.1305    0.0000 O   0  0  0  0  0  0  0  0  0  0  0  0
    0.3193   -3.2048    0.0000 C   0  0  0  0  0  0  0  0  0  0  0  0
    1.8254   -1.2399    0.0000 O   0  0  0  0  0  0  0  0  0  0  0  0
    6.0350   -3.1616    0.0000 C   0  0  0  0  0  0  0  0  0  0  0  0
   -0.4371   -2.2255    0.0000 C   0  0  0  0  0  0  0  0  0  0  0  0
    0.3627   -1.2275    0.0000 C   0  0  0  0  0  0  0  0  0  0  0  0
    6.5121   -2.2071    0.0000 C   0  0  0  0  0  0  0  0  0  0  0  0
   -1.3173    2.7463    0.0000 C   0  0  0  0  0  0  0  0  0  0  0  0
   -5.9109    2.2999    0.0000 O   0  0  0  0  0  0  0  0  0  0  0  0
   -5.1111    1.9280    0.0000 C   0  0  0  0  0  0  0  0  0  0  0  0
   -6.6546    1.7791    0.0000 C   0  0  0  0  0  0  0  0  0  0  0  0
   -1.2551    1.8967    0.0000 C   0  0  0  0  0  0  0  0  0  0  0  0
   -5.7807    0.5144    0.0000 C   0  0  0  0  0  0  0  0  0  0  0  0
    0.1395    3.7999    0.0000 C   0  0  0  0  0  0  0  0  0  0  0  0
    1.2864    2.3744    0.0000 C   0  0  0  0  0  0  0  0  0  0  0  0
   -6.5803    0.8739    0.0000 C   0  0  0  0  0  0  0  0  0  0  0  0
   -4.9749    1.0473    0.0000 C   0  0  0  0  0  0  0  0  0  0  0  0
   -4.3363    2.4796    0.0000 C   0  0  0  0  0  0  0  0  0  0  0  0
   -2.0178    2.2129    0.0000 C   0  0  0  0  0  0  0  0  0  0  0  0
   -0.4060    0.6507    0.0000 C   0  0  0  0  0  0  0  0  0  0  0  0
    0.3501   -0.5890    0.0000 C   0  0  0  0  0  0  0  0  0  0  0  0
   -1.4475    3.6389    0.0000 C   0  0  0  0  0  0  0  0  0  0  0  0
   -7.4792    2.1942    0.0000 O   0  0  0  0  0  0  0  0  0  0  0  0
   -0.6785    4.1596    0.0000 C   0  0  0  0  0  0  0  0  0  0  0  0
   -0.3936   -0.1550    0.0000 O   0  0  0  0  0  0  0  0  0  0  0  0
    0.3501    1.1717    0.0000 O   0  0  0  0  0  0  0  0  0  0  0  0
   -2.8173    2.5850    0.0000 O   0  0  0  0  0  0  0  0  0  0  0  0
    3.9829   -1.2275    0.0000 C   0  0  0  0  0  0  0  0  0  0  0  0
    4.5037   -4.0357    0.0000 O   0  0  0  0  0  0  0  0  0  0  0  0
    1.7945   -4.1596    0.0000 O   0  0  0  0  0  0  0  0  0  0  0  0
   -3.5613    2.0888    0.0000 C   0  0  0  0  0  0  0  0  0  0  0  0
   -4.1998    0.6322    0.0000 C   0  0  0  0  0  0  0  0  0  0  0  0
    0.3380   -2.2814    0.0000 O   0  0  0  0  0  0  0  0  0  0  0  0
   -1.2121    1.0228    0.0000 C   0  0  0  0  0  0  0  0  0  0  0  0
    5.9420   -2.4179    0.0000 O   0  0  0  0  0  0  0  0  0  0  0  0
   -0.4371   -3.2670    0.0000 O   0  0  0  0  0  0  0  0  0  0  0  0
    0.2141    2.0334    0.0000 C   0  0  0  0  0  0  0  0  0  0  0  0
   -3.4561    1.1841    0.0000 C   0  0  0  0  0  0  0  0  0  0  0  0
    6.5121   -3.3229    0.0000 C   0  0  0  0  0  0  0  0  0  0  0  0
    3.0903   -0.7379    0.0000 O   0  0  0  0  0  0  0  0  0  0  0  0
    7.4792   -3.8436    0.0000 O   0  0  0  0  0  0  0  0  0  0  0  0
    1.4042    1.4814    0.0000 C   0  0  0  0  0  0  0  0  0  0  0  0
    2.0180    2.9260    0.0000 C   0  0  0  0  0  0  0  0  0  0  0  0
   -2.1790    4.0231    0.0000 C   0  0  0  0  0  0  0  0  0  0  0  0
  2  8  1  0  0  0  0
  3  1  1  0  0  0  0
  4 19  1  0  0  0  0
  5  2  1  0  0  0  0
  6  1  1  0  0  0  0
  7  4  1  0  0  0  0
  8  1  1  0  0  0  0
  9  5  1  0  0  0  0
 10  2  1  0  0  0  0
 11  3  1  0  0  0  0
 12 13  1  0  0  0  0
 13 10  1  0  0  0  0
 14  6  1  0  0  0  0
 15  4  1  0  0  0  0
 16 17  1  0  0  0  0
 17 25  1  0  0  0  0
 18 16  1  0  0  0  0
 19 41  1  0  0  0  0
 20 24  1  0  0  0  0
 21  7  1  0  0  0  0
 22  7  2  0  0  0  0
 23 20  2  0  0  0  0
 24 39  1  0  0  0  0
 25 38  2  0  0  0  0
 15 26  1  0  0  0  0
 27 32  1  0  0  0  0
 13 28  1  0  0  0  0
 29 15  1  0  0  0  0
 30 18  2  0  0  0  0
 31 29  1  0  0  0  0
 32 28  1  0  0  0  0
 33 27  2  0  0  0  0
 34 26  1  0  0  0  0
  1 35  1  0  0  0  0
  3 36  1  0  0  0  0
  5 37  1  0  0  0  0
 38 34  1  0  0  0  0
 39 45  2  0  0  0  0
  9 40  1  0  0  0  0
 41 27  1  0  0  0  0
 11 42  1  0  0  0  0
 12 43  1  0  0  0  0
 44  4  1  0  0  0  0
 45 38  1  0  0  0  0
 14 46  1  0  0  0  0
 47 35  1  0  0  0  0
 48 46  1  0  0  0  0
 49 22  1  0  0  0  0
 50 22  1  0  0  0  0
 29 51  1  0  0  0  0
 11 14  1  0  0  0  0
 12  9  1  0  0  0  0
 21 31  1  0  0  0  0
 24 17  2  0  0  0  0
 23 18  1  0  0  0  0
M  END
>  <IDNUMBER> (N014-0003)
N014-0003

>  <available> (N014-0003)
112

>  <H_acceptor> (N014-0003)
15

>  <H_donor> (N014-0003)
7

>  <B_rotN> (N014-0003)
20

>  <N_O> (N014-0003)
15

>  <logP> (N014-0003)
1.49

>  <logD> (N014-0003)
-0.79

>  <logSw> (N014-0003)
-4.51

>  <PSA> (N014-0003)
231.13

>  <Chiral_centers> (N014-0003)
12

>  <Name> (N014-0003)
(6-{[3,4-dihydroxy-2,5-bis(hydroxymethyl)oxolan-2-yl]oxy}-3,4,5-trihydroxyoxan-2-yl)methyl 3-(1,3-dimethyl-2-{[(2-oxo-2H-chromen-7-yl)oxy]methyl}-6-(propan-2-ylidene)cyclohexyl)propanoate

>  <Smile> (N014-0003)
CC1C(C(CCC(OCC2OC(OC3(CO)OC(C(C3O)O)CO)C(C(O)C2O)O)=O)(C(=C(C)C)CC1)C)COc1cc2OC(C=Cc2cc1)=O

>  <Collection> (N014-0003)
DC

>  <CLNUMBER> (N014-0003)
CV0119

>  <InChI Key> (N014-0003)
JTGXEXCMXHUMBA-UHFFFAOYSA-N

>  <PERCENTSP3> (N014-0003)
66.7

$$$$

  -ISIS-  -- StrEd -- 

 19 20  0  0  0  0  0  0  0  0999 V2000
   -0.1992   -0.3083    0.0000 C   0  0  0  0  0  0  0  0  0  0  0  0
   -1.0077   -1.3204    0.0000 C   0  0  0  0  0  0  0  0  0  0  0  0
   -2.5005   -1.3204    0.0000 C   0  0  0  0  0  0  0  0  0  0  0  0
   -1.0077    0.7538    0.0000 O   0  0  0  0  0  0  0  0  0  0  0  0
   -3.2885   -0.3083    0.0000 C   0  0  0  0  0  0  0  0  0  0  0  0
   -2.5005    0.7538    0.0000 C   0  0  0  0  0  0  0  0  0  0  0  0
   -0.1992    0.4234    0.0000 O   0  0  0  0  0  0  0  0  0  0  0  0
   -1.0077   -1.9223    0.0000 O   0  0  0  0  0  0  0  0  0  0  0  0
   -2.5005   -0.6624    0.0000 O   0  0  0  0  0  0  0  0  0  0  0  0
    0.6713    0.7066    0.0000 C   0  0  0  0  0  0  0  0  0  0  0  0
   -3.2885   -0.9869    0.0000 O   0  0  0  0  0  0  0  0  0  0  0  0
    2.4505    1.2938    0.0000 C   0  0  0  0  0  0  0  0  0  0  0  0
   -2.5005    1.4001    0.0000 C   0  0  0  0  0  0  0  0  0  0  0  0
    1.3735    0.0753    0.0000 C   0  0  0  0  0  0  0  0  0  0  0  0
    0.8335    1.6272    0.0000 C   0  0  0  0  0  0  0  0  0  0  0  0
    1.7482    1.9223    0.0000 C   0  0  0  0  0  0  0  0  0  0  0  0
    2.2587    0.3733    0.0000 C   0  0  0  0  0  0  0  0  0  0  0  0
    3.3356    1.5771    0.0000 O   0  0  0  0  0  0  0  0  0  0  0  0
   -3.3356    1.8751    0.0000 O   0  0  0  0  0  0  0  0  0  0  0  0
  2  1  1  0  0  0  0
  3  2  1  0  0  0  0
  4  1  1  0  0  0  0
  5  6  1  0  0  0  0
  6  4  1  0  0  0  0
  1  7  1  0  0  0  0
  2  8  1  0  0  0  0
  3  9  1  0  0  0  0
 10  7  1  0  0  0  0
  5 11  1  0  0  0  0
 12 16  1  0  0  0  0
  6 13  1  0  0  0  0
 14 10  2  0  0  0  0
 15 10  1  0  0  0  0
 16 15  2  0  0  0  0
 17 14  1  0  0  0  0
 18 12  1  0  0  0  0
 19 13  1  0  0  0  0
  5  3  1  0  0  0  0
 17 12  2  0  0  0  0
M  END
>  <IDNUMBER> (N034-0001)
N034-0001

>  <available> (N034-0001)
198

>  <H_acceptor> (N034-0001)
7

>  <H_donor> (N034-0001)
5

>  <B_rotN> (N034-0001)
7

>  <N_O> (N034-0001)
7

>  <logP> (N034-0001)
-0.97

>  <logD> (N034-0001)
-1.23

>  <logSw> (N034-0001)
-0.53

>  <PSA> (N034-0001)
119.61

>  <Chiral_centers> (N034-0001)
5

>  <Name> (N034-0001)
2-(hydroxymethyl)-6-(4-hydroxyphenoxy)oxane-3,4,5-triol

>  <Smile> (N034-0001)
OCC1OC(Oc2ccc(O)cc2)C(O)C(C1O)O

>  <Collection> (N034-0001)
DC

>  <InChI Key> (N034-0001)
BJRNKVDFDLYUGJ-UHFFFAOYSA-N

>  <PERCENTSP3> (N034-0001)
50

$$$$

  -ISIS-  -- StrEd -- 

 51 55  0  0  0  0  0  0  0  0999 V2000
    4.0266   -2.2072    0.0000 C   0  0  0  0  0  0  0  0  0  0  0  0
    2.5697   -2.2256    0.0000 C   0  0  0  0  0  0  0  0  0  0  0  0
    4.5039   -3.1620    0.0000 C   0  0  0  0  0  0  0  0  0  0  0  0
    1.8073   -3.2361    0.0000 C   0  0  0  0  0  0  0  0  0  0  0  0
   -0.5301    2.4054    0.0000 C   0  0  0  0  0  0  0  0  0  0  0  0
    5.2911   -1.5251    0.0000 O   0  0  0  0  0  0  0  0  0  0  0  0
    3.2826   -3.1307    0.0000 O   0  0  0  0  0  0  0  0  0  0  0  0
    0.3193   -3.2050    0.0000 C   0  0  0  0  0  0  0  0  0  0  0  0
    1.8255   -1.2400    0.0000 O   0  0  0  0  0  0  0  0  0  0  0  0
    6.0351   -3.1620    0.0000 C   0  0  0  0  0  0  0  0  0  0  0  0
   -0.4371   -2.2256    0.0000 C   0  0  0  0  0  0  0  0  0  0  0  0
    0.3628   -1.2276    0.0000 C   0  0  0  0  0  0  0  0  0  0  0  0
    6.5124   -2.2072    0.0000 C   0  0  0  0  0  0  0  0  0  0  0  0
   -1.3173    2.7464    0.0000 C   0  0  0  0  0  0  0  0  0  0  0  0
    0.2141    2.9075    0.0000 C   0  0  0  0  0  0  0  0  0  0  0  0
   -5.9110    2.3000    0.0000 O   0  0  0  0  0  0  0  0  0  0  0  0
   -5.1114    1.9279    0.0000 C   0  0  0  0  0  0  0  0  0  0  0  0
   -6.6550    1.7792    0.0000 C   0  0  0  0  0  0  0  0  0  0  0  0
   -1.4475    3.6390    0.0000 C   0  0  0  0  0  0  0  0  0  0  0  0
   -0.6788    4.1598    0.0000 C   0  0  0  0  0  0  0  0  0  0  0  0
   -1.2554    1.8968    0.0000 C   0  0  0  0  0  0  0  0  0  0  0  0
   -5.7810    0.5145    0.0000 C   0  0  0  0  0  0  0  0  0  0  0  0
    0.1395    3.8001    0.0000 C   0  0  0  0  0  0  0  0  0  0  0  0
    1.2865    2.3743    0.0000 C   0  0  0  0  0  0  0  0  0  0  0  0
   -6.5806    0.8739    0.0000 C   0  0  0  0  0  0  0  0  0  0  0  0
   -4.9751    1.0476    0.0000 C   0  0  0  0  0  0  0  0  0  0  0  0
   -4.3363    2.4795    0.0000 C   0  0  0  0  0  0  0  0  0  0  0  0
   -2.0178    2.2130    0.0000 C   0  0  0  0  0  0  0  0  0  0  0  0
   -0.4060    0.6510    0.0000 C   0  0  0  0  0  0  0  0  0  0  0  0
    0.3501   -0.5890    0.0000 C   0  0  0  0  0  0  0  0  0  0  0  0
   -7.4796    2.1943    0.0000 O   0  0  0  0  0  0  0  0  0  0  0  0
   -0.3936   -0.1552    0.0000 O   0  0  0  0  0  0  0  0  0  0  0  0
    0.3501    1.1715    0.0000 O   0  0  0  0  0  0  0  0  0  0  0  0
   -2.8175    2.5851    0.0000 O   0  0  0  0  0  0  0  0  0  0  0  0
    4.0266   -1.2276    0.0000 C   0  0  0  0  0  0  0  0  0  0  0  0
    4.5039   -4.0359    0.0000 O   0  0  0  0  0  0  0  0  0  0  0  0
    1.4043    1.4814    0.0000 C   0  0  0  0  0  0  0  0  0  0  0  0
    1.7946   -4.1598    0.0000 O   0  0  0  0  0  0  0  0  0  0  0  0
   -3.5614    2.0889    0.0000 C   0  0  0  0  0  0  0  0  0  0  0  0
   -4.2000    0.6323    0.0000 C   0  0  0  0  0  0  0  0  0  0  0  0
    0.3380   -2.2815    0.0000 O   0  0  0  0  0  0  0  0  0  0  0  0
   -1.2122    1.0228    0.0000 C   0  0  0  0  0  0  0  0  0  0  0  0
    5.9423   -2.4180    0.0000 O   0  0  0  0  0  0  0  0  0  0  0  0
   -0.4371   -3.2672    0.0000 O   0  0  0  0  0  0  0  0  0  0  0  0
    0.2141    2.0335    0.0000 C   0  0  0  0  0  0  0  0  0  0  0  0
   -3.4563    1.1841    0.0000 C   0  0  0  0  0  0  0  0  0  0  0  0
    6.5124   -3.3228    0.0000 C   0  0  0  0  0  0  0  0  0  0  0  0
    3.1648   -0.6884    0.0000 O   0  0  0  0  0  0  0  0  0  0  0  0
    7.4796   -3.8438    0.0000 O   0  0  0  0  0  0  0  0  0  0  0  0
   -2.1791    4.0231    0.0000 C   0  0  0  0  0  0  0  0  0  0  0  0
    2.0181    2.9261    0.0000 C   0  0  0  0  0  0  0  0  0  0  0  0
  2  7  1  0  0  0  0
  3  1  1  0  0  0  0
  4  2  1  0  0  0  0
  5 21  1  0  0  0  0
  6  1  1  0  0  0  0
  7  1  1  0  0  0  0
  8  4  1  0  0  0  0
  9  2  1  0  0  0  0
 10  3  1  0  0  0  0
 11 12  1  0  0  0  0
 12  9  1  0  0  0  0
 13  6  1  0  0  0  0
 14  5  1  0  0  0  0
 15  5  1  0  0  0  0
 16 17  1  0  0  0  0
 17 27  1  0  0  0  0
 18 16  1  0  0  0  0
 19 14  1  0  0  0  0
 20 23  1  0  0  0  0
 21 42  1  0  0  0  0
 22 26  1  0  0  0  0
 23 15  1  0  0  0  0
 15 24  1  0  0  0  0
 25 22  2  0  0  0  0
 26 40  1  0  0  0  0
 27 39  2  0  0  0  0
 14 28  1  0  0  0  0
 29 32  1  0  0  0  0
 12 30  1  0  0  0  0
 31 18  2  0  0  0  0
 32 30  1  0  0  0  0
 33 29  2  0  0  0  0
 34 28  1  0  0  0  0
  1 35  1  0  0  0  0
  3 36  1  0  0  0  0
 37 24  2  0  0  0  0
  4 38  1  0  0  0  0
 39 34  1  0  0  0  0
 40 46  2  0  0  0  0
  8 41  1  0  0  0  0
 42 29  1  0  0  0  0
 10 43  1  0  0  0  0
 11 44  1  0  0  0  0
 45  5  1  0  0  0  0
 46 39  1  0  0  0  0
 13 47  1  0  0  0  0
 48 35  1  0  0  0  0
 49 47  1  0  0  0  0
 50 19  1  0  0  0  0
 51 24  1  0  0  0  0
 10 13  1  0  0  0  0
 11  8  1  0  0  0  0
 20 19  2  0  0  0  0
 26 17  2  0  0  0  0
 25 18  1  0  0  0  0
M  END
>  <IDNUMBER> (N014-0006)
N014-0006

>  <available> (N014-0006)
210

>  <H_acceptor> (N014-0006)
15

>  <H_donor> (N014-0006)
7

>  <B_rotN> (N014-0006)
21

>  <N_O> (N014-0006)
15

>  <logP> (N014-0006)
1.1

>  <logD> (N014-0006)
-1

>  <logSw> (N014-0006)
-4.44

>  <PSA> (N014-0006)
231.13

>  <Chiral_centers> (N014-0006)
12

>  <Name> (N014-0006)
(6-{[3,4-dihydroxy-2,5-bis(hydroxymethyl)oxolan-2-yl]oxy}-3,4,5-trihydroxyoxan-2-yl)methyl 3-(1,3-dimethyl-2-{[(2-oxo-2H-chromen-7-yl)oxy]methyl}-6-(prop-1-en-2-yl)cyclohex-3-en-1-yl)propanoate

>  <Smile> (N014-0006)
CC(C1C(CCC(OCC2OC(OC3(CO)OC(C(C3O)O)CO)C(C(O)C2O)O)=O)(C(COc2cc3OC(C=Cc3cc2)=O)C(=CC1)C)C)=C

>  <Collection> (N014-0006)
DC

>  <CLNUMBER> (N014-0006)
CV0119

>  <InChI Key> (N014-0006)
DHWWEECGNRQBKD-UHFFFAOYSA-N

>  <PERCENTSP3> (N014-0006)
61.1

$$$$

  -ISIS-  -- StrEd -- 

 64 72  0  0  0  0  0  0  0  0999 V2000
    1.9297    2.0847    0.0000 C   0  0  0  0  0  0  0  0  0  0  0  0
    1.2688    1.6526    0.0000 C   0  0  0  0  0  0  0  0  0  0  0  0
    3.2273    2.0847    0.0000 C   0  0  2  0  0  0  0  0  0  0  0  0
    3.2273    2.8112    0.0000 C   0  0  0  0  0  0  0  0  0  0  0  0
    2.5745    1.6526    0.0000 C   0  0  0  0  0  0  0  0  0  0  0  0
    1.2688    2.5743    0.0000 C   0  0  0  0  0  0  0  0  0  0  0  0
   -3.2761   -2.0034    0.0000 C   0  0  0  0  0  0  0  0  0  0  0  0
   -3.3007   -6.0424    0.0000 C   0  0  0  0  0  0  0  0  0  0  0  0
    1.2688    0.9508    0.0000 C   0  0  0  0  0  0  0  0  0  0  0  0
    3.9289    3.0478    0.0000 C   0  0  0  0  0  0  0  0  0  0  0  0
    3.9126    3.9454    0.0000 C   0  0  1  0  0  0  0  0  0  0  0  0
   -2.5499   -5.0796    0.0000 C   0  0  0  0  0  0  0  0  0  0  0  0
    1.1872   -3.3414    0.0000 C   0  0  0  0  0  0  0  0  0  0  0  0
   -1.1463   -5.0387    0.0000 C   0  0  0  0  0  0  0  0  0  0  0  0
   -2.6722   -1.2446    0.0000 C   0  0  0  0  0  0  0  0  0  0  0  0
   -3.2761   -3.6678    0.0000 O   0  0  0  0  0  0  0  0  0  0  0  0
    1.9297   -2.3948    0.0000 C   0  0  0  0  0  0  0  0  0  0  0  0
   -2.4929   -6.9969    0.0000 O   0  0  0  0  0  0  0  0  0  0  0  0
    1.9297    0.5591    0.0000 C   0  0  2  0  0  0  0  0  0  0  0  0
    0.5835    0.5591    0.0000 C   0  0  1  0  0  0  0  0  0  0  0  0
    3.4800    4.6307    0.0000 O   0  0  0  0  0  0  0  0  0  0  0  0
   -4.4756   -2.0034    0.0000 C   0  0  0  0  0  0  0  0  0  0  0  0
    3.9289    1.8483    0.0000 C   0  0  0  0  0  0  0  0  0  0  0  0
   -0.3631   -6.0015    0.0000 C   0  0  0  0  0  0  0  0  0  0  0  0
    4.3371    2.4604    0.0000 C   0  0  0  0  0  0  0  0  0  0  0  0
   -0.1020   -3.3414    0.0000 C   0  0  0  0  0  0  0  0  0  0  0  0
    2.5745    0.9508    0.0000 C   0  0  0  0  0  0  0  0  0  0  0  0
    1.9297    2.8112    0.0000 C   0  0  0  0  0  0  0  0  0  0  0  0
    1.9297   -1.1056    0.0000 O   0  0  0  0  0  0  0  0  0  0  0  0
   -0.0042    0.9508    0.0000 C   0  0  0  0  0  0  0  0  0  0  0  0
   -1.1056   -6.9969    0.0000 C   0  0  0  0  0  0  0  0  0  0  0  0
   -3.2761   -0.4040    0.0000 O   0  0  0  0  0  0  0  0  0  0  0  0
    1.1872   -1.4566    0.0000 O   0  0  0  0  0  0  0  0  0  0  0  0
   -2.6722   -0.2083    0.0000 O   0  0  0  0  0  0  0  0  0  0  0  0
    0.5835    2.0847    0.0000 C   0  0  0  0  0  0  0  0  0  0  0  0
    2.5745    3.2029    0.0000 C   0  0  0  0  0  0  0  0  0  0  0  0
    4.0267    5.2428    0.0000 C   0  0  2  0  0  0  0  0  0  0  0  0
   -5.1203   -1.2446    0.0000 C   0  0  0  0  0  0  0  0  0  0  0  0
   -0.8283   -2.3948    0.0000 C   0  0  0  0  0  0  0  0  0  0  0  0
    3.6518    6.1240    0.0000 C   0  0  0  0  0  0  0  0  0  0  0  0
    4.7532    4.1004    0.0000 C   0  0  0  0  0  0  0  0  0  0  0  0
   -0.1020   -1.4566    0.0000 C   0  0  0  0  0  0  0  0  0  0  0  0
   -4.4756   -0.4040    0.0000 C   0  0  0  0  0  0  0  0  0  0  0  0
   -0.0042    1.6526    0.0000 C   0  0  0  0  0  0  0  0  0  0  0  0
    4.7532    4.9243    0.0000 C   0  0  0  0  0  0  0  0  0  0  0  0
   -2.5499   -4.2797    0.0000 O   0  0  0  0  0  0  0  0  0  0  0  0
    1.1872   -4.1248    0.0000 O   0  0  0  0  0  0  0  0  0  0  0  0
   -1.1463   -4.2390    0.0000 O   0  0  0  0  0  0  0  0  0  0  0  0
    3.2273    1.3585    0.0000 C   0  0  0  0  0  0  0  0  0  0  0  0
    3.2273    3.6924    0.0000 C   0  0  0  0  0  0  0  0  0  0  0  0
   -4.4756   -1.2607    0.0000 O   0  0  0  0  0  0  0  0  0  0  0  0
   -0.3631   -7.0378    0.0000 O   0  0  0  0  0  0  0  0  0  0  0  0
   -0.1020   -2.4195    0.0000 O   0  0  0  0  0  0  0  0  0  0  0  0
    5.1203    2.4604    0.0000 O   0  0  0  0  0  0  0  0  0  0  0  0
    4.6553    3.4556    0.0000 C   0  0  0  0  0  0  0  0  0  0  0  0
    3.3007    7.0378    0.0000 O   0  0  0  0  0  0  0  0  0  0  0  0
   -0.8120   -3.5374    0.0000 O   0  0  0  0  0  0  0  0  0  0  0  0
   -5.1203   -2.1663    0.0000 O   0  0  0  0  0  0  0  0  0  0  0  0
    0.8934   -0.0858    0.0000 C   0  0  0  0  0  0  0  0  0  0  0  0
    0.1671   -0.0858    0.0000 C   0  0  0  0  0  0  0  0  0  0  0  0
   -1.1056   -6.0015    0.0000 C   0  0  0  0  0  0  0  0  0  0  0  0
    4.5330    6.5322    0.0000 C   0  0  0  0  0  0  0  0  0  0  0  0
    2.7538    5.7649    0.0000 C   0  0  0  0  0  0  0  0  0  0  0  0
    4.9489    5.7649    0.0000 H   0  0  0  0  0  0  0  0  0  0  0  0
  2  1  1  0  0  0  0
  3  5  1  0  0  0  0
  4 36  1  0  0  0  0
  5  1  1  0  0  0  0
  6  1  1  0  0  0  0
  7 15  1  0  0  0  0
  8 16  1  0  0  0  0
  9  2  1  0  0  0  0
 10  4  1  0  0  0  0
 11 10  1  0  0  0  0
 12  8  1  0  0  0  0
 13 17  1  0  0  0  0
 14 12  1  0  0  0  0
 15 34  1  0  0  0  0
 16  7  1  0  0  0  0
 17 29  1  0  0  0  0
 18  8  1  0  0  0  0
 19 27  1  0  0  0  0
 20  9  1  0  0  0  0
 11 21  1  6  0  0  0
 22  7  1  0  0  0  0
 23  3  1  0  0  0  0
 24 31  1  0  0  0  0
 25 23  1  0  0  0  0
 26 13  1  0  0  0  0
 27  5  1  0  0  0  0
 28  1  1  0  0  0  0
 19 29  1  6  0  0  0
 30 44  1  0  0  0  0
 31 18  1  0  0  0  0
 32 15  1  0  0  0  0
 33 17  1  0  0  0  0
 34 30  1  0  0  0  0
 35  2  1  0  0  0  0
 36 28  1  0  0  0  0
 37 21  1  0  0  0  0
 38 43  1  0  0  0  0
 39 42  1  0  0  0  0
 37 40  1  6  0  0  0
 41 11  1  0  0  0  0
 42 33  1  0  0  0  0
 43 32  1  0  0  0  0
 44 35  1  0  0  0  0
 45 41  1  0  0  0  0
 46 12  1  0  0  0  0
 47 13  1  0  0  0  0
 48 14  1  0  0  0  0
  3 49  1  6  0  0  0
 50  4  1  0  0  0  0
 51 22  1  0  0  0  0
 52 24  1  0  0  0  0
 53 26  1  0  0  0  0
 54 25  1  0  0  0  0
 11 55  1  1  0  0  0
 56 40  1  0  0  0  0
 57 39  1  0  0  0  0
 58 38  1  0  0  0  0
 20 59  1  6  0  0  0
 60 20  1  0  0  0  0
 61 31  1  0  0  0  0
 62 40  1  0  0  0  0
 63 40  1  0  0  0  0
 64 37  1  0  0  0  0
  2  6  1  0  0  0  0
  4  3  1  0  0  0  0
  9 19  1  0  0  0  0
 10 25  1  0  0  0  0
 30 20  1  0  0  0  0
 37 45  1  0  0  0  0
 39 26  1  0  0  0  0
 22 38  1  0  0  0  0
 24 14  1  0  0  0  0
M  END
>  <IDNUMBER> (N040-0008)
N040-0008

>  <available> (N040-0008)
300

>  <H_acceptor> (N040-0008)
17

>  <H_donor> (N040-0008)
10

>  <B_rotN> (N040-0008)
18

>  <N_O> (N040-0008)
17

>  <logP> (N040-0008)
0.89

>  <logD> (N040-0008)
0.89

>  <logSw> (N040-0008)
-4.45

>  <PSA> (N040-0008)
266.91

>  <Chiral_centers> (N040-0008)
25

>  <Name> (N040-0008)
2-{[4,5-DIHYDROXY-2-({14-HYDROXY-15-[5-(2-HYDROXYPROPAN-2-YL)-2-METHYLOXOLAN-2-YL]-7,7,12,16-TETRAMETHYL-9-[(3,4,5-TRIHYDROXYOXAN-2-YL)OXY]PENTACYCLO[9.7.0.0^(1,3).0^(3,8).0^(12,16)]OCTADECAN-6-YL}OXY
)OXAN-3-YL]OXY}-6-METHYLOXANE-3,4,5-TRIOL

>  <Smile> (N040-0008)
C123C4(C1)C([C@H](CC2[C@]1(C(C(C2(O[C@](C(O)(C)C)(CC2)[H])C)C(C1)O)(CC3)C)C)OC1C(C(C(CO1)O)O)O)[C@@](C(OC1C(OC2C(C(C(C(O2)C)O)O)O)C(C(CO1)O)O)CC4)(C)C

>  <Collection> (N040-0008)
DC

>  <InChI Key> (N040-0008)
KQSZHSKJNNXOTD-RYXCSWSPSA-N

>  <PERCENTSP3> (N040-0008)
100

$$$$

  -ISIS-  -- StrEd -- 

 60 70  0  0  0  0  0  0  0  0999 V2000
   -1.5152   -3.3961    0.0000 N   0  3  0  0  0  0  0  0  0  0  0  0
   -3.7462   -1.7900    0.0000 C   0  0  0  0  0  0  0  0  0  0  0  0
    2.3090    0.3095    0.0000 C   0  0  0  0  0  0  0  0  0  0  0  0
   -3.7462   -2.6899    0.0000 C   0  0  0  0  0  0  0  0  0  0  0  0
   -4.4837   -3.1148    0.0000 N   0  0  0  0  0  0  0  0  0  0  0  0
   -1.4966   -1.8215    0.0000 C   0  0  0  0  0  0  0  0  0  0  0  0
   -2.3214   -3.8647    0.0000 C   0  0  0  0  0  0  0  0  0  0  0  0
   -1.9775   -2.6150    0.0000 C   0  0  0  0  0  0  0  0  0  0  0  0
   -0.7468   -3.8647    0.0000 C   0  0  1  0  0  0  0  0  0  0  0  0
    4.7399    0.7720    0.0000 C   0  0  0  0  0  0  0  0  0  0  0  0
    2.3090   -0.6405    0.0000 C   0  0  0  0  0  0  0  0  0  0  0  0
    4.7399    1.7029    0.0000 C   0  0  0  0  0  0  0  0  0  0  0  0
   -3.1211   -2.6150    0.0000 C   0  0  0  0  0  0  0  0  0  0  0  0
    3.1338    0.7720    0.0000 C   0  0  2  0  0  0  0  0  0  0  0  0
   -1.5152   -5.2396    0.0000 C   0  0  0  0  0  0  0  0  0  0  0  0
   -5.2645   -1.7900    0.0000 C   0  0  0  0  0  0  0  0  0  0  0  0
   -5.2645   -2.6899    0.0000 C   0  0  0  0  0  0  0  0  0  0  0  0
    3.9024    0.3095    0.0000 C   0  0  1  0  0  0  0  0  0  0  0  0
   -2.5214   -1.3277    0.0000 C   0  0  0  0  0  0  0  0  0  0  0  0
   -0.7468   -4.7771    0.0000 C   0  0  0  0  0  0  0  0  0  0  0  0
    5.8959    2.8588    0.0000 C   0  0  0  0  0  0  0  0  0  0  0  0
    5.6083    1.9591    0.0000 C   0  0  2  0  0  0  0  0  0  0  0  0
   -2.3214   -4.7771    0.0000 C   0  0  0  0  0  0  0  0  0  0  0  0
    2.3090    1.2343    0.0000 C   0  0  0  0  0  0  0  0  0  0  0  0
    5.3083    3.5464    0.0000 C   0  0  0  0  0  0  0  0  0  0  0  0
   -0.9155   -2.3339    0.0000 C   0  0  0  0  0  0  0  0  0  0  0  0
    5.8522    4.3397    0.0000 C   0  0  0  0  0  0  0  0  0  0  0  0
    3.9024    2.1527    0.0000 C   0  0  0  0  0  0  0  0  0  0  0  0
    5.6083    0.5031    0.0000 C   0  0  0  0  0  0  0  0  0  0  0  0
    1.4717   -1.0715    0.0000 C   0  0  0  0  0  0  0  0  0  0  0  0
    1.4717    0.7720    0.0000 C   0  0  0  0  0  0  0  0  0  0  0  0
   -0.1029   -2.0339    0.0000 C   0  0  0  0  0  0  0  0  0  0  0  0
    3.1338    1.7029    0.0000 C   0  0  0  0  0  0  0  0  0  0  0  0
    6.7330    4.0835    0.0000 O   0  0  0  0  0  0  0  0  0  0  0  0
    6.1333    1.2343    0.0000 C   0  0  0  0  0  0  0  0  0  0  0  0
    3.9024   -0.6405    0.0000 C   0  0  0  0  0  0  0  0  0  0  0  0
    3.1338   -1.0715    0.0000 C   0  0  0  0  0  0  0  0  0  0  0  0
    6.7643    3.1587    0.0000 C   0  0  0  0  0  0  0  0  0  0  0  0
   -0.1029   -1.1028    0.0000 O   0  0  0  0  0  0  0  0  0  0  0  0
    0.7341   -0.6405    0.0000 C   0  0  0  0  0  0  0  0  0  0  0  0
    1.4717    1.7029    0.0000 O   0  0  0  0  0  0  0  0  0  0  0  0
    0.7219   -2.4962    0.0000 O   0  0  0  0  0  0  0  0  0  0  0  0
    5.5332    5.2396    0.0000 O   0  0  0  0  0  0  0  0  0  0  0  0
    0.0907   -3.3524    0.0000 O   0  0  0  0  0  0  0  0  0  0  0  0
    4.7272   -0.3528    0.0000 O   0  0  0  0  0  0  0  0  0  0  0  0
    2.3090   -1.8401    0.0000 O   0  0  0  0  0  0  0  0  0  0  0  0
   -2.7776   -1.9716    0.0000 O   0  0  0  0  0  0  0  0  0  0  0  0
   -4.4837   -4.0711    0.0000 C   0  0  0  0  0  0  0  0  0  0  0  0
    0.7341    0.3095    0.0000 C   0  0  0  0  0  0  0  0  0  0  0  0
    4.7272    2.8839    0.0000 C   0  0  0  0  0  0  0  0  0  0  0  0
    2.8524    1.9278    0.0000 O   0  0  0  0  0  0  0  0  0  0  0  0
   -6.0268   -1.3903    0.0000 C   0  0  0  0  0  0  0  0  0  0  0  0
   -6.0268   -3.1148    0.0000 C   0  0  0  0  0  0  0  0  0  0  0  0
    0.1220   -5.2147    0.0000 C   0  0  0  0  0  0  0  0  0  0  0  0
    2.5028    2.9152    0.0000 C   0  0  0  0  0  0  0  0  0  0  0  0
    0.9593   -4.7020    0.0000 C   0  0  0  0  0  0  0  0  0  0  0  0
   -6.7643   -1.7900    0.0000 C   0  0  0  0  0  0  0  0  0  0  0  0
   -6.7643   -2.6899    0.0000 C   0  0  0  0  0  0  0  0  0  0  0  0
    3.1338   -0.1154    0.0000 H   0  0  0  0  0  0  0  0  0  0  0  0
    3.9024    1.1341    0.0000 H   0  0  0  0  0  0  0  0  0  0  0  0
  4  2  1  0  0  0  0
  3 31  1  0  0  0  0
  7  4  1  0  0  0  0
  5  4  1  0  0  0  0
  6  1  1  0  0  0  0
  7  1  1  0  0  0  0
  8  6  1  0  0  0  0
  9  1  1  0  0  0  0
 10 18  1  0  0  0  0
 11 30  1  0  0  0  0
 12 28  1  0  0  0  0
 13  8  1  0  0  0  0
 14  3  1  0  0  0  0
 15 20  1  0  0  0  0
 16  2  1  0  0  0  0
 17  5  1  0  0  0  0
 18 14  1  0  0  0  0
 19  6  1  0  0  0  0
 20  9  1  0  0  0  0
 22 21  1  6  0  0  0
 22 12  1  0  0  0  0
 23  7  1  0  0  0  0
  3 24  1  0  0  0  0
 25 21  2  0  0  0  0
 26  1  1  0  0  0  0
 27 25  1  0  0  0  0
 28 33  1  0  0  0  0
 29 10  1  0  0  0  0
 30 40  1  0  0  0  0
 31 49  1  0  0  0  0
 32 26  1  0  0  0  0
 33 14  1  0  0  0  0
 34 38  1  0  0  0  0
 35 29  1  0  0  0  0
 36 37  1  0  0  0  0
 37 11  1  0  0  0  0
 38 21  1  0  0  0  0
 39 32  1  0  0  0  0
 40 39  1  0  0  0  0
 41 24  2  0  0  0  0
 42 32  2  0  0  0  0
 43 27  2  0  0  0  0
  9 44  1  6  0  0  0
 10 45  1  0  0  0  0
 11 46  1  0  0  0  0
 13 47  1  0  0  0  0
 48  5  1  0  0  0  0
 49 40  1  0  0  0  0
 12 50  1  0  0  0  0
 51 24  1  0  0  0  0
 52 16  1  0  0  0  0
 53 17  1  0  0  0  0
 20 54  1  0  0  0  0
 55 51  1  0  0  0  0
 56 54  1  0  0  0  0
 57 52  2  0  0  0  0
 58 53  2  0  0  0  0
 14 59  1  6  0  0  0
 18 60  1  1  0  0  0
 23 15  1  0  0  0  0
 19  2  1  0  0  0  0
  8 15  1  0  0  0  0
 13  2  1  0  0  0  0
 16 17  2  0  0  0  0
  3 11  1  0  0  0  0
 57 58  1  0  0  0  0
 18 36  1  0  0  0  0
 10 12  1  0  0  0  0
 35 22  1  0  0  0  0
 27 34  1  0  0  0  0
M  CHG  1   1   1
M  END
>  <IDNUMBER> (0521-0012)
0521-0012

>  <available> (0521-0012)
419

>  <Saltdata> (0521-0012)
Br-

>  <H_acceptor> (0521-0012)
10

>  <H_donor> (0521-0012)
4

>  <B_rotN> (0521-0012)
12

>  <N_O> (0521-0012)
12

>  <logP> (0521-0012)
2.08

>  <logD> (0521-0012)
5.33

>  <logSw> (0521-0012)
-9.09

>  <PSA> (0521-0012)
163.06

>  <Chiral_centers> (0521-0012)
17

>  <Name> (0521-0012)
Unable to name this structure

>  <Smile> (0521-0012)
c1cc2N(C3C4(C(C5C([N+]6(CC(OC7CC8(C(CC7)(C7C(C9(CCC(C9(CC7)C)C7=CC(OC7)=O)O)CC8)C(=O)OC)O)=O)C(O)C(C5CC36)CC)C4)O)c2cc1)C

>  <Collection> (0521-0012)
DC

>  <InChI Key> (0521-0012)
VTRDANCBYRZCRZ-ZZRNEGNXSA-N

>  <PERCENTSP3> (0521-0012)
76.1

$$$$

  -ISIS-  -- StrEd -- 

 28 30  0  0  0  0  0  0  0  0999 V2000
    0.1637    0.0883    0.0000 C   0  0  0  0  0  0  0  0  0  0  0  0
    1.1357    0.2947    0.0000 C   0  0  0  0  0  0  0  0  0  0  0  0
   -0.6018    0.7026    0.0000 C   0  0  0  0  0  0  0  0  0  0  0  0
   -1.4681    0.2089    0.0000 C   0  0  0  0  0  0  0  0  0  0  0  0
    1.9214   -0.3248    0.0000 C   0  0  0  0  0  0  0  0  0  0  0  0
   -2.3294    0.7026    0.0000 C   0  0  0  0  0  0  0  0  0  0  0  0
   -0.2694   -0.8032    0.0000 C   0  0  0  0  0  0  0  0  0  0  0  0
   -0.6018    1.7200    0.0000 C   0  0  0  0  0  0  0  0  0  0  0  0
    1.9214   -1.3220    0.0000 C   0  0  0  0  0  0  0  0  0  0  0  0
    1.5890    1.1912    0.0000 C   0  0  0  0  0  0  0  0  0  0  0  0
   -2.3294    1.6899    0.0000 C   0  0  0  0  0  0  0  0  0  0  0  0
    1.1357   -1.9364    0.0000 C   0  0  0  0  0  0  0  0  0  0  0  0
    0.1637   -1.7148    0.0000 C   0  0  0  0  0  0  0  0  0  0  0  0
    2.5710    1.1762    0.0000 N   0  0  0  0  0  0  0  0  0  0  0  0
   -1.4681    2.2036    0.0000 C   0  0  0  0  0  0  0  0  0  0  0  0
    3.0998    2.0322    0.0000 C   0  0  0  0  0  0  0  0  0  0  0  0
    0.1637    2.3342    0.0000 C   0  0  0  0  0  0  0  0  0  0  0  0
    2.8076   -1.7752    0.0000 O   0  0  0  0  0  0  0  0  0  0  0  0
    1.1357    2.1077    0.0000 C   0  0  0  0  0  0  0  0  0  0  0  0
    4.0819    2.0019    0.0000 O   0  0  0  0  0  0  0  0  0  0  0  0
   -1.4681   -0.8032    0.0000 O   0  0  0  0  0  0  0  0  0  0  0  0
   -3.2155    0.2243    0.0000 O   0  0  0  0  0  0  0  0  0  0  0  0
    1.3773   -2.9084    0.0000 O   0  0  0  0  0  0  0  0  0  0  0  0
   -3.2155    2.1884    0.0000 O   0  0  0  0  0  0  0  0  0  0  0  0
    2.6012    2.9084    0.0000 C   0  0  0  0  0  0  0  0  0  0  0  0
   -0.6018   -1.2917    0.0000 C   0  0  0  0  0  0  0  0  0  0  0  0
   -4.0819    0.7479    0.0000 C   0  0  0  0  0  0  0  0  0  0  0  0
   -4.0819    1.6545    0.0000 C   0  0  0  0  0  0  0  0  0  0  0  0
  2  1  1  0  0  0  0
  3  1  1  0  0  0  0
  4  3  1  0  0  0  0
  5  2  2  0  0  0  0
  6  4  2  0  0  0  0
  7  1  2  0  0  0  0
  8  3  2  0  0  0  0
  9  5  1  0  0  0  0
 10  2  1  0  0  0  0
 11 15  2  0  0  0  0
 12 13  2  0  0  0  0
 13  7  1  0  0  0  0
 10 14  1  0  0  0  0
 15  8  1  0  0  0  0
 16 14  1  0  0  0  0
 17  8  1  0  0  0  0
 18  9  2  0  0  0  0
 19 10  1  0  0  0  0
 20 16  2  0  0  0  0
 21  4  1  0  0  0  0
 22  6  1  0  0  0  0
 23 12  1  0  0  0  0
 24 11  1  0  0  0  0
 25 16  1  0  0  0  0
 26 21  1  0  0  0  0
 27 22  1  0  0  0  0
 28 24  1  0  0  0  0
 12  9  1  0  0  0  0
 19 17  1  0  0  0  0
 11  6  1  0  0  0  0
M  END
>  <IDNUMBER> (N070-0009)
N070-0009

>  <available> (N070-0009)
49

>  <H_acceptor> (N070-0009)
6

>  <H_donor> (N070-0009)
2

>  <B_rotN> (N070-0009)
6

>  <N_O> (N070-0009)
7

>  <logP> (N070-0009)
1.55

>  <logD> (N070-0009)
0.09

>  <logSw> (N070-0009)
-3.13

>  <PSA> (N070-0009)
94.09

>  <Chiral_centers> (N070-0009)
1

>  <Name> (N070-0009)
N-{14-HYDROXY-3,4,5-TRIMETHOXY-13-OXOTRICYCLO[9.5.0.0^(2,7)]HEXADECA-1(16),2,4,6,11,14-HEXAEN-10-YL}ACETAMIDE

>  <Smile> (N070-0009)
COc1c(c(c2c3ccc(c(cc3C(CCc2c1)NC(=O)C)=O)O)OC)OC

>  <Collection> (N070-0009)
NC

>  <InChI Key> (N070-0009)
PRGILOMAMBLWNG-UHFFFAOYSA-N

>  <PERCENTSP3> (N070-0009)
33.3

$$$$

  -ISIS-  -- StrEd -- 

 32 34  0  0  1  0  0  0  0  0999 V2000
    0.0563   -0.0916    0.0000 C   0  0  0  0  0  0  0  0  0  0  0  0
    1.0884   -0.0916    0.0000 C   0  0  0  0  0  0  0  0  0  0  0  0
   -0.5301    0.7387    0.0000 C   0  0  0  0  0  0  0  0  0  0  0  0
   -1.5059    0.4574    0.0000 C   0  0  0  0  0  0  0  0  0  0  0  0
    1.7217   -0.8795    0.0000 C   0  0  0  0  0  0  0  0  0  0  0  0
   -2.2330    1.1658    0.0000 C   0  0  0  0  0  0  0  0  0  0  0  0
   -0.5723   -0.8795    0.0000 C   0  0  0  0  0  0  0  0  0  0  0  0
   -0.2910    1.7099    0.0000 C   0  0  0  0  0  0  0  0  0  0  0  0
    1.4777   -1.8507    0.0000 C   0  0  0  0  0  0  0  0  0  0  0  0
    1.7451    0.7387    0.0000 C   0  0  1  0  0  0  0  0  0  0  0  0
   -1.9937    2.1180    0.0000 C   0  0  0  0  0  0  0  0  0  0  0  0
    0.5395   -2.2682    0.0000 C   0  0  0  0  0  0  0  0  0  0  0  0
   -0.3472   -1.8648    0.0000 C   0  0  0  0  0  0  0  0  0  0  0  0
    2.4113   -0.0727    0.0000 N   0  0  0  0  0  0  0  0  0  0  0  0
   -1.0367    2.3995    0.0000 C   0  0  0  0  0  0  0  0  0  0  0  0
    2.7584   -0.9359    0.0000 C   0  0  0  0  0  0  0  0  0  0  0  0
    0.5818    2.1460    0.0000 C   0  0  0  0  0  0  0  0  0  0  0  0
    2.2658   -2.4699    0.0000 O   0  0  0  0  0  0  0  0  0  0  0  0
    1.4965    1.7145    0.0000 C   0  0  0  0  0  0  0  0  0  0  0  0
    2.2658   -1.6396    0.0000 O   0  0  0  0  0  0  0  0  0  0  0  0
    0.5207   -3.2721    0.0000 N   0  0  0  0  0  0  0  0  0  0  0  0
   -1.7543   -0.5138    0.0000 O   0  0  0  0  0  0  0  0  0  0  0  0
   -3.1899    0.9077    0.0000 O   0  0  0  0  0  0  0  0  0  0  0  0
   -2.7021    2.7842    0.0000 O   0  0  0  0  0  0  0  0  0  0  0  0
    3.8842   -0.9359    0.0000 C   0  0  0  0  0  0  0  0  0  0  0  0
    1.3699   -3.7647    0.0000 C   0  0  0  0  0  0  0  0  0  0  0  0
   -2.7021   -0.7671    0.0000 C   0  0  0  0  0  0  0  0  0  0  0  0
   -3.8842    1.6161    0.0000 C   0  0  0  0  0  0  0  0  0  0  0  0
   -2.4769    3.7647    0.0000 C   0  0  0  0  0  0  0  0  0  0  0  0
    3.3918    0.0821    0.0000 H   0  0  0  0  0  0  0  0  0  0  0  0
    2.5519    1.2595    0.0000 H   0  0  0  0  0  0  0  0  0  0  0  0
   -0.3378   -3.7647    0.0000 H   0  0  0  0  0  0  0  0  0  0  0  0
  2  1  1  0  0  0  0
  3  1  1  0  0  0  0
  4  3  1  0  0  0  0
  5  2  2  0  0  0  0
  6  4  2  0  0  0  0
  7  1  2  0  0  0  0
  8  3  2  0  0  0  0
  9  5  1  0  0  0  0
 10  2  1  0  0  0  0
 11 15  2  0  0  0  0
 12 13  2  0  0  0  0
 13  7  1  0  0  0  0
 10 14  1  6  0  0  0
 15  8  1  0  0  0  0
 16 14  1  0  0  0  0
 17  8  1  0  0  0  0
 18  9  2  0  0  0  0
 19 10  1  0  0  0  0
 20 16  2  0  0  0  0
 21 12  1  0  0  0  0
 22  4  1  0  0  0  0
 23  6  1  0  0  0  0
 24 11  1  0  0  0  0
 25 16  1  0  0  0  0
 26 21  1  0  0  0  0
 27 22  1  0  0  0  0
 28 23  1  0  0  0  0
 29 24  1  0  0  0  0
 30 14  1  0  0  0  0
 10 31  1  1  0  0  0
 32 21  1  0  0  0  0
  9 12  1  0  0  0  0
 17 19  1  0  0  0  0
  6 11  1  0  0  0  0
M  END
>  <IDNUMBER> (N051-0045)
N051-0045

>  <available> (N051-0045)
253

>  <H_acceptor> (N051-0045)
5

>  <H_donor> (N051-0045)
2

>  <B_rotN> (N051-0045)
6

>  <N_O> (N051-0045)
7

>  <logP> (N051-0045)
1.67

>  <logD> (N051-0045)
1.35

>  <logSw> (N051-0045)
-0.13

>  <PSA> (N051-0045)
85.89

>  <Chiral_centers> (N051-0045)
1

>  <Name> (N051-0045)
N-[3,4,5-TRIMETHOXY-14-(METHYLAMINO)-13-OXOTRICYCLO[9.5.0.0^(2,7)]HEXADECA-1(16),2,4,6,11,14-HEXAEN-10-YL]ACETAMIDE

>  <Smile> (N051-0045)
COc1c(c(c2c3ccc(c(cc3C(CCc2c1)NC(=O)C)=O)NC)OC)OC

>  <Collection> (N051-0045)
DC

>  <InChI Key> (N051-0045)
NLBLGIGBTKMQSA-INIZCTEOSA-N

>  <PERCENTSP3> (N051-0045)
36.4

$$$$

  -ISIS-  -- StrEd -- 

 32 34  0  0  1  0  0  0  0  0999 V2000
    0.3026    0.4059    0.0000 C   0  0  0  0  0  0  0  0  0  0  0  0
    1.3350    0.4059    0.0000 C   0  0  0  0  0  0  0  0  0  0  0  0
   -0.2839    1.2363    0.0000 C   0  0  0  0  0  0  0  0  0  0  0  0
   -1.2598    0.9548    0.0000 C   0  0  0  0  0  0  0  0  0  0  0  0
    1.9682   -0.3824    0.0000 C   0  0  0  0  0  0  0  0  0  0  0  0
   -0.3261   -0.3824    0.0000 C   0  0  0  0  0  0  0  0  0  0  0  0
    1.7242   -1.3537    0.0000 C   0  0  0  0  0  0  0  0  0  0  0  0
    0.7860   -1.7712    0.0000 C   0  0  0  0  0  0  0  0  0  0  0  0
   -1.9869    1.6633    0.0000 C   0  0  0  0  0  0  0  0  0  0  0  0
   -0.0445    2.2074    0.0000 C   0  0  0  0  0  0  0  0  0  0  0  0
   -0.1008   -1.3677    0.0000 C   0  0  0  0  0  0  0  0  0  0  0  0
   -1.7478    2.6157    0.0000 C   0  0  0  0  0  0  0  0  0  0  0  0
   -0.7906    2.8972    0.0000 C   0  0  0  0  0  0  0  0  0  0  0  0
    1.9917    1.2363    0.0000 C   0  0  2  0  0  0  0  0  0  0  0  0
    0.7671   -2.7753    0.0000 N   0  0  0  0  0  0  0  0  0  0  0  0
    0.8283    2.6440    0.0000 C   0  0  0  0  0  0  0  0  0  0  0  0
    2.5125   -1.9730    0.0000 O   0  0  0  0  0  0  0  0  0  0  0  0
    1.7431    2.2122    0.0000 C   0  0  0  0  0  0  0  0  0  0  0  0
   -1.5084   -0.0164    0.0000 O   0  0  0  0  0  0  0  0  0  0  0  0
   -2.9442    1.4052    0.0000 O   0  0  0  0  0  0  0  0  0  0  0  0
    2.6579    0.4247    0.0000 N   0  0  0  0  0  0  0  0  0  0  0  0
   -2.4561    3.2820    0.0000 O   0  0  0  0  0  0  0  0  0  0  0  0
    1.6163   -3.2679    0.0000 C   0  0  0  0  0  0  0  0  0  0  0  0
   -0.0916   -3.2679    0.0000 C   0  0  0  0  0  0  0  0  0  0  0  0
    3.0051   -0.4388    0.0000 C   0  0  0  0  0  0  0  0  0  0  0  0
   -2.4561   -0.2697    0.0000 C   0  0  0  0  0  0  0  0  0  0  0  0
   -3.6386    2.1138    0.0000 C   0  0  0  0  0  0  0  0  0  0  0  0
   -2.2310    4.2625    0.0000 C   0  0  0  0  0  0  0  0  0  0  0  0
    2.4750   -2.7847    0.0000 C   0  0  0  0  0  0  0  0  0  0  0  0
   -0.0916   -4.2625    0.0000 C   0  0  0  0  0  0  0  0  0  0  0  0
    3.6386    0.5794    0.0000 H   0  0  0  0  0  0  0  0  0  0  0  0
    2.7987    1.7572    0.0000 H   0  0  0  0  0  0  0  0  0  0  0  0
  2  1  1  0  0  0  0
  3  1  1  0  0  0  0
  4  3  1  0  0  0  0
  5  2  2  0  0  0  0
  6  1  2  0  0  0  0
  7  5  1  0  0  0  0
  8 11  2  0  0  0  0
  9  4  2  0  0  0  0
 10  3  2  0  0  0  0
 11  6  1  0  0  0  0
 12 13  2  0  0  0  0
 13 10  1  0  0  0  0
 14  2  1  0  0  0  0
 15  8  1  0  0  0  0
 16 10  1  0  0  0  0
 17  7  2  0  0  0  0
 18 14  1  0  0  0  0
 19  4  1  0  0  0  0
 20  9  1  0  0  0  0
 14 21  1  6  0  0  0
 22 12  1  0  0  0  0
 23 15  1  0  0  0  0
 24 15  1  0  0  0  0
 25 21  1  0  0  0  0
 26 19  1  0  0  0  0
 27 20  1  0  0  0  0
 28 22  1  0  0  0  0
 29 23  1  0  0  0  0
 30 24  1  0  0  0  0
 31 21  1  0  0  0  0
 14 32  1  1  0  0  0
  7  8  1  0  0  0  0
 16 18  1  0  0  0  0
  9 12  1  0  0  0  0
M  END
>  <IDNUMBER> (N051-0052)
N051-0052

>  <available> (N051-0052)
36

>  <H_acceptor> (N051-0052)
5

>  <H_donor> (N051-0052)
1

>  <B_rotN> (N051-0052)
7

>  <N_O> (N051-0052)
6

>  <logP> (N051-0052)
3.32

>  <logD> (N051-0052)
0.11

>  <logSw> (N051-0052)
-3.38

>  <PSA> (N051-0052)
60.03

>  <Chiral_centers> (N051-0052)
1

>  <Name> (N051-0052)
14-(DIETHYLAMINO)-3,4,5-TRIMETHOXY-10-(METHYLAMINO)TRICYCLO[9.5.0.0^(2,7)]HEXADECA-1(16),2,4,6,11,14-HEXAEN-13-ONE

>  <Smile> (N051-0052)
CCN(c1c(cc2c(cc1)c1c(c(c(cc1CCC2NC)OC)OC)OC)=O)CC

>  <Collection> (N051-0052)
DC

>  <InChI Key> (N051-0052)
KHZZMTAJRIDFIB-SFHVURJKSA-N

>  <PERCENTSP3> (N051-0052)
45.8

$$$$

  -ISIS-  -- StrEd -- 

 28 31  0  0  0  0  0  0  0  0999 V2000
    1.7381    1.3303    0.0000 C   0  0  0  0  0  0  0  0  0  0  0  0
    1.7381    0.3006    0.0000 C   0  0  0  0  0  0  0  0  0  0  0  0
    2.6633    1.6073    0.0000 C   0  0  2  0  0  0  0  0  0  0  0  0
   -0.8599   -0.1909    0.0000 C   0  0  0  0  0  0  0  0  0  0  0  0
   -0.8599   -1.1945    0.0000 C   0  0  0  0  0  0  0  0  0  0  0  0
   -0.0080    0.3110    0.0000 C   0  0  0  0  0  0  0  0  0  0  0  0
    0.8703   -0.1909    0.0000 C   0  0  0  0  0  0  0  0  0  0  0  0
    3.2539    0.8389    0.0000 C   0  0  1  0  0  0  0  0  0  0  0  0
    2.6893    0.0130    0.0000 C   0  0  0  0  0  0  0  0  0  0  0  0
    0.8703    1.8059    0.0000 C   0  0  0  0  0  0  0  0  0  0  0  0
   -0.0080   -1.6963    0.0000 C   0  0  0  0  0  0  0  0  0  0  0  0
    0.8703   -1.1945    0.0000 C   0  0  0  0  0  0  0  0  0  0  0  0
   -0.0080    1.3303    0.0000 C   0  0  0  0  0  0  0  0  0  0  0  0
   -1.7276    0.3110    0.0000 C   0  0  0  0  0  0  0  0  0  0  0  0
    2.9508    2.5483    0.0000 C   0  0  0  0  0  0  0  0  0  0  0  0
   -1.7276   -1.6963    0.0000 C   0  0  0  0  0  0  0  0  0  0  0  0
   -3.4318   -2.6738    0.0000 C   0  0  0  0  0  0  0  0  0  0  0  0
   -3.4318   -1.6963    0.0000 O   0  0  0  0  0  0  0  0  0  0  0  0
   -2.5798   -1.1945    0.0000 C   0  0  0  0  0  0  0  0  0  0  0  0
   -2.6163   -3.2749    0.0000 O   0  0  0  0  0  0  0  0  0  0  0  0
    3.9180    2.7469    0.0000 O   0  0  0  0  0  0  0  0  0  0  0  0
    3.9180    2.1196    0.0000 O   0  0  0  0  0  0  0  0  0  0  0  0
    1.7381    2.2711    0.0000 C   0  0  0  0  0  0  0  0  0  0  0  0
   -2.5798   -0.1909    0.0000 C   0  0  0  0  0  0  0  0  0  0  0  0
   -0.8599    0.6769    0.0000 C   0  0  0  0  0  0  0  0  0  0  0  0
    4.2471    0.8911    0.0000 C   0  0  0  0  0  0  0  0  0  0  0  0
   -4.2471   -3.1233    0.0000 C   0  0  0  0  0  0  0  0  0  0  0  0
    2.2608    3.2749    0.0000 C   0  0  0  0  0  0  0  0  0  0  0  0
  2  1  1  0  0  0  0
  3  1  1  0  0  0  0
  6  4  1  0  0  0  0
  5  4  1  0  0  0  0
  6 13  1  0  0  0  0
  7  2  1  0  0  0  0
  8  3  1  0  0  0  0
  9  2  1  0  0  0  0
 10  1  1  0  0  0  0
 11 12  1  0  0  0  0
 12  7  1  0  0  0  0
 13 10  1  0  0  0  0
 14  4  1  0  0  0  0
 15  3  1  0  0  0  0
 16  5  1  0  0  0  0
 17 18  1  0  0  0  0
 19 18  1  0  0  0  0
 19 24  1  0  0  0  0
 20 17  2  0  0  0  0
 21 15  2  0  0  0  0
  3 22  1  6  0  0  0
  1 23  1  0  0  0  0
 24 14  1  0  0  0  0
  4 25  1  0  0  0  0
  8 26  1  6  0  0  0
 27 17  1  0  0  0  0
 28 15  1  0  0  0  0
  8  9  1  0  0  0  0
  7  6  1  0  0  0  0
  5 11  2  0  0  0  0
 19 16  1  0  0  0  0
M  END
>  <IDNUMBER> (N050-0020)
N050-0020

>  <available> (N050-0020)
76

>  <H_acceptor> (N050-0020)
4

>  <H_donor> (N050-0020)
1

>  <B_rotN> (N050-0020)
4

>  <N_O> (N050-0020)
4

>  <logP> (N050-0020)
3.45

>  <logD> (N050-0020)
4.72

>  <logSw> (N050-0020)
-5.48

>  <PSA> (N050-0020)
63.6

>  <Chiral_centers> (N050-0020)
8

>  <Name> (N050-0020)
1-acetyl-1-hydroxy-2,9a,11a-trimethyl-1H,2H,3H,3aH,3bH,4H,6H,7H,8H,9H,9aH,9bH,10H,11H,11aH-cyclopenta[a]phenanthren-7-yl acetate

>  <Smile> (N050-0020)
CC(C1(C2(C)CCC3C4(C)C(=CCC3C2CC1C)CC(OC(=O)C)CC4)O)=O

>  <Collection> (N050-0020)
DC

>  <InChI Key> (N050-0020)
PBWPIBBLWBUSGM-UYBAVWACSA-N

>  <PERCENTSP3> (N050-0020)
83.3

$$$$

  -ISIS-  -- StrEd -- 

 19 21  0  0  0  0  0  0  0  0999 V2000
   -0.4571    0.2590    0.0000 C   0  0  0  0  0  0  0  0  0  0  0  0
    0.4112   -0.2590    0.0000 C   0  0  2  0  0  0  0  0  0  0  0  0
    0.6092   -1.2337    0.0000 O   0  0  0  0  0  0  0  0  0  0  0  0
    1.5892   -1.3453    0.0000 C   0  0  0  0  0  0  0  0  0  0  0  0
   -1.2948   -0.2590    0.0000 C   0  0  0  0  0  0  0  0  0  0  0  0
    1.2845    0.2337    0.0000 C   0  0  0  0  0  0  0  0  0  0  0  0
   -0.4571    1.2593    0.0000 C   0  0  2  0  0  0  0  0  0  0  0  0
    2.0207   -0.4518    0.0000 C   0  0  1  0  0  0  0  0  0  0  0  0
   -2.1681    0.2337    0.0000 C   0  0  0  0  0  0  0  0  0  0  0  0
   -1.2948    1.7467    0.0000 C   0  0  0  0  0  0  0  0  0  0  0  0
   -2.1681    1.2593    0.0000 C   0  0  0  0  0  0  0  0  0  0  0  0
    1.2845    1.2593    0.0000 C   0  0  0  0  0  0  0  0  0  0  0  0
    2.1070   -2.2543    0.0000 O   0  0  0  0  0  0  0  0  0  0  0  0
    0.4112    1.7467    0.0000 C   0  0  0  0  0  0  0  0  0  0  0  0
   -3.0209   -0.1724    0.0000 O   0  0  0  0  0  0  0  0  0  0  0  0
   -1.2948   -1.2590    0.0000 C   0  0  0  0  0  0  0  0  0  0  0  0
   -0.4571    2.2543    0.0000 C   0  0  0  0  0  0  0  0  0  0  0  0
    3.0209   -0.2994    0.0000 C   0  0  0  0  0  0  0  0  0  0  0  0
    0.4062    0.7463    0.0000 H   0  0  0  0  0  0  0  0  0  0  0  0
  2  1  1  0  0  0  0
  2  3  1  6  0  0  0
  4  3  1  0  0  0  0
  5  1  2  0  0  0  0
  6  2  1  0  0  0  0
  7  1  1  0  0  0  0
  8  6  1  0  0  0  0
  9  5  1  0  0  0  0
 10  7  1  0  0  0  0
 11 10  2  0  0  0  0
 12 14  1  0  0  0  0
 13  4  2  0  0  0  0
 14  7  1  0  0  0  0
 15  9  2  0  0  0  0
 16  5  1  0  0  0  0
  7 17  1  1  0  0  0
  8 18  1  1  0  0  0
  6 12  1  0  0  0  0
 11  9  1  0  0  0  0
  8  4  1  0  0  0  0
  2 19  1  6  0  0  0
M  END
>  <IDNUMBER> (0115-0004)
0115-0004

>  <available> (0115-0004)
2299

>  <H_acceptor> (0115-0004)
3

>  <H_donor> (0115-0004)
0

>  <B_rotN> (0115-0004)
0

>  <N_O> (0115-0004)
3

>  <logP> (0115-0004)
1.15

>  <logD> (0115-0004)
2.38

>  <logSw> (0115-0004)
-3.45

>  <PSA> (0115-0004)
43.37

>  <Chiral_centers> (0115-0004)
4

>  <Name> (0115-0004)
3,5a,9-trimethyl-2H,3H,3aH,4H,5H,5aH,8H,9bH-naphtho[1,2-b]furan-2,8-dione

>  <Smile> (0115-0004)
CC1C(OC2C3C(C=CC(C=3C)=O)(C)CCC12)=O

>  <Collection> (0115-0004)
DC

>  <InChI Key> (0115-0004)
XJHDMGJURBVLLE-CJZKDVRTSA-N

>  <PERCENTSP3> (0115-0004)
60

$$$$

  -ISIS-  -- StrEd -- 

 21 23  0  0  0  0  0  0  0  0999 V2000
   -0.8740    0.2029    0.0000 C   0  0  2  0  0  0  0  0  0  0  0  0
   -0.1035   -0.4391    0.0000 C   0  0  1  0  0  0  0  0  0  0  0  0
   -0.8740    1.2136    0.0000 C   0  0  0  0  0  0  0  0  0  0  0  0
   -0.1781   -1.4499    0.0000 O   0  0  0  0  0  0  0  0  0  0  0  0
    0.8906   -0.2196    0.0000 C   0  0  1  0  0  0  0  0  0  0  0  0
   -1.8474   -0.1202    0.0000 C   0  0  0  0  0  0  0  0  0  0  0  0
   -1.8474    1.5119    0.0000 C   0  0  0  0  0  0  0  0  0  0  0  0
    0.7746   -1.8309    0.0000 C   0  0  0  0  0  0  0  0  0  0  0  0
   -0.1035    1.8308    0.0000 C   0  0  0  0  0  0  0  0  0  0  0  0
   -2.4273    0.7000    0.0000 C   0  0  0  0  0  0  0  0  0  0  0  0
    1.3339    0.7000    0.0000 C   0  0  2  0  0  0  0  0  0  0  0  0
    1.4126   -1.0728    0.0000 C   0  0  2  0  0  0  0  0  0  0  0  0
    0.8906    1.6113    0.0000 C   0  0  0  0  0  0  0  0  0  0  0  0
    1.0355   -2.8250    0.0000 O   0  0  0  0  0  0  0  0  0  0  0  0
   -2.1912    2.4645    0.0000 O   0  0  0  0  0  0  0  0  0  0  0  0
    2.3446    0.7000    0.0000 O   0  0  0  0  0  0  0  0  0  0  0  0
   -2.1912   -1.0728    0.0000 C   0  0  0  0  0  0  0  0  0  0  0  0
   -0.3190    2.8250    0.0000 C   0  0  0  0  0  0  0  0  0  0  0  0
    2.4273   -1.1723    0.0000 C   0  0  0  0  0  0  0  0  0  0  0  0
   -0.9486   -0.5924    0.0000 H   0  0  0  0  0  0  0  0  0  0  0  0
    1.8350   -0.0953    0.0000 H   0  0  0  0  0  0  0  0  0  0  0  0
  2  1  1  0  0  0  0
  3  1  1  0  0  0  0
  2  4  1  6  0  0  0
  5  2  1  0  0  0  0
  6  1  1  0  0  0  0
  7  3  1  0  0  0  0
  8  4  1  0  0  0  0
  9  3  2  0  0  0  0
 10  6  2  0  0  0  0
 11  5  1  0  0  0  0
 12  5  1  0  0  0  0
 13  9  1  0  0  0  0
 14  8  2  0  0  0  0
 15  7  2  0  0  0  0
 11 16  1  6  0  0  0
 17  6  1  0  0  0  0
 18  9  1  0  0  0  0
 12 19  1  1  0  0  0
  1 20  1  6  0  0  0
  5 21  1  6  0  0  0
 10  7  1  0  0  0  0
 11 13  1  0  0  0  0
  8 12  1  0  0  0  0
M  END
>  <IDNUMBER> (0115-0006)
0115-0006

>  <available> (0115-0006)
313

>  <H_acceptor> (0115-0006)
4

>  <H_donor> (0115-0006)
1

>  <B_rotN> (0115-0006)
1

>  <N_O> (0115-0006)
4

>  <logP> (0115-0006)
1.3

>  <logD> (0115-0006)
0.91

>  <logSw> (0115-0006)
-1.42

>  <PSA> (0115-0006)
63.6

>  <Chiral_centers> (0115-0006)
5

>  <Name> (0115-0006)
4-hydroxy-3,6,9-trimethyl-2H,3H,3aH,4H,5H,7H,9aH,9bH-azuleno[4,5-b]furan-2,7-dione

>  <Smile> (0115-0006)
CC1C2C(C3C(=CC(C3=C(CC2O)C)=O)C)OC1=O

>  <Collection> (0115-0006)
DC

>  <InChI Key> (0115-0006)
YMUOZXZDDBRJEP-SSGZPDKPSA-N

>  <PERCENTSP3> (0115-0006)
60

$$$$

  -ISIS-  -- StrEd -- 

 12 13  0  0  0  0  0  0  0  0999 V2000
    1.3234   -0.2179    0.0000 N   0  0  0  0  0  0  0  0  0  0  0  0
   -0.4390   -0.2501    0.0000 C   0  0  0  0  0  0  0  0  0  0  0  0
    0.4262    0.2501    0.0000 C   0  0  0  0  0  0  0  0  0  0  0  0
   -1.3041   -1.7592    0.0000 N   0  0  0  0  0  0  0  0  0  0  0  0
   -0.4390   -1.2548    0.0000 C   0  0  0  0  0  0  0  0  0  0  0  0
    2.1692    0.2715    0.0000 C   0  0  0  0  0  0  0  0  0  0  0  0
   -1.3041    0.2501    0.0000 C   0  0  0  0  0  0  0  0  0  0  0  0
   -2.1692   -1.2548    0.0000 C   0  0  0  0  0  0  0  0  0  0  0  0
    0.4262    1.2440    0.0000 C   0  0  0  0  0  0  0  0  0  0  0  0
   -2.1692   -0.2501    0.0000 C   0  0  0  0  0  0  0  0  0  0  0  0
    2.1585    1.2805    0.0000 C   0  0  0  0  0  0  0  0  0  0  0  0
    1.2827    1.7592    0.0000 C   0  0  0  0  0  0  0  0  0  0  0  0
  3  2  1  0  0  0  0
  3  1  1  0  0  0  0
  4  5  1  0  0  0  0
  5  2  2  0  0  0  0
  6  1  1  0  0  0  0
  7  2  1  0  0  0  0
  8 10  1  0  0  0  0
  9  3  1  0  0  0  0
 10  7  2  0  0  0  0
 11  6  1  0  0  0  0
 12 11  1  0  0  0  0
 12  9  1  0  0  0  0
  8  4  2  0  0  0  0
M  END
>  <IDNUMBER> (N010-0001)
N010-0001

>  <available> (N010-0001)
1301

>  <Saltdata> (N010-0001)
HCl

>  <H_acceptor> (N010-0001)
0

>  <H_donor> (N010-0001)
1

>  <B_rotN> (N010-0001)
1

>  <N_O> (N010-0001)
2

>  <logP> (N010-0001)
1.55

>  <logD> (N010-0001)
-1.86

>  <logSw> (N010-0001)
0.55

>  <PSA> (N010-0001)
24.92

>  <Chiral_centers> (N010-0001)
1

>  <Name> (N010-0001)
3-(piperidin-2-yl)pyridine

>  <Smile> (N010-0001)
N1C(c2cnccc2)CCCC1

>  <Collection> (N010-0001)
DC

>  <InChI Key> (N010-0001)
MTXSIJUGVMTTMU-UHFFFAOYSA-N

>  <PERCENTSP3> (N010-0001)
50

$$$$

  -ISIS-  -- StrEd -- 

 57 64  0  0  0  0  0  0  0  0999 V2000
    4.7853    2.5961    0.0000 C   0  0  0  0  0  0  0  0  0  0  0  0
    4.7853    3.3467    0.0000 C   0  0  0  0  0  0  0  0  0  0  0  0
    2.9444    2.2473    0.0000 C   0  0  0  0  0  0  0  0  0  0  0  0
    4.1597    2.2473    0.0000 C   0  0  1  0  0  0  0  0  0  0  0  0
    3.5430    2.5961    0.0000 C   0  0  2  0  0  0  0  0  0  0  0  0
    5.7503    4.5439    0.0000 C   0  0  0  0  0  0  0  0  0  0  0  0
    5.4468    3.5165    0.0000 C   0  0  0  0  0  0  0  0  0  0  0  0
   -3.9451   -1.9079    0.0000 C   0  0  0  0  0  0  0  0  0  0  0  0
   -1.3716    0.1296    0.0000 C   0  0  0  0  0  0  0  0  0  0  0  0
   -3.9451   -5.0801    0.0000 C   0  0  0  0  0  0  0  0  0  0  0  0
   -1.3716   -1.9079    0.0000 C   0  0  0  0  0  0  0  0  0  0  0  0
    1.0500    0.1296    0.0000 C   0  0  0  0  0  0  0  0  0  0  0  0
   -2.0329   -1.0322    0.0000 O   0  0  0  0  0  0  0  0  0  0  0  0
   -4.6063   -4.1419    0.0000 O   0  0  0  0  0  0  0  0  0  0  0  0
    0.4334    0.9428    0.0000 O   0  0  0  0  0  0  0  0  0  0  0  0
   -2.0329   -2.7211    0.0000 C   0  0  0  0  0  0  0  0  0  0  0  0
   -4.6063   -6.0093    0.0000 C   0  0  0  0  0  0  0  0  0  0  0  0
    0.4334   -0.6478    0.0000 C   0  0  0  0  0  0  0  0  0  0  0  0
    5.0893    5.3393    0.0000 C   0  0  0  0  0  0  0  0  0  0  0  0
    2.9444    1.4969    0.0000 C   0  0  0  0  0  0  0  0  0  0  0  0
   -3.3465   -2.7211    0.0000 C   0  0  0  0  0  0  0  0  0  0  0  0
   -0.7728   -0.6478    0.0000 C   0  0  0  0  0  0  0  0  0  0  0  0
   -6.6888   -5.0801    0.0000 C   0  0  0  0  0  0  0  0  0  0  0  0
   -3.3465   -1.0322    0.0000 C   0  0  0  0  0  0  0  0  0  0  0  0
   -0.7728    0.9428    0.0000 C   0  0  0  0  0  0  0  0  0  0  0  0
   -6.0273   -6.0093    0.0000 C   0  0  0  0  0  0  0  0  0  0  0  0
    5.7325    6.2595    0.0000 C   0  0  0  0  0  0  0  0  0  0  0  0
   -6.0273   -4.1419    0.0000 C   0  0  0  0  0  0  0  0  0  0  0  0
    5.4468    2.3547    0.0000 C   0  0  0  0  0  0  0  0  0  0  0  0
    4.1597    3.6859    0.0000 C   0  0  0  0  0  0  0  0  0  0  0  0
   -3.9451   -3.4091    0.0000 O   0  0  0  0  0  0  0  0  0  0  0  0
   -1.3716   -0.9428    0.0000 O   0  0  0  0  0  0  0  0  0  0  0  0
    3.5430    3.3467    0.0000 C   0  0  0  0  0  0  0  0  0  0  0  0
    6.7334    5.9647    0.0000 O   0  0  0  0  0  0  0  0  0  0  0  0
    5.8755    2.9622    0.0000 C   0  0  0  0  0  0  0  0  0  0  0  0
    2.2564    2.5961    0.0000 C   0  0  0  0  0  0  0  0  0  0  0  0
    4.1597    1.4969    0.0000 C   0  0  0  0  0  0  0  0  0  0  0  0
    6.7334    4.9105    0.0000 C   0  0  0  0  0  0  0  0  0  0  0  0
    1.0500    1.1392    0.0000 O   0  0  0  0  0  0  0  0  0  0  0  0
    2.2564    1.1753    0.0000 C   0  0  0  0  0  0  0  0  0  0  0  0
    3.5430    1.1753    0.0000 C   0  0  0  0  0  0  0  0  0  0  0  0
    5.3661    7.3142    0.0000 O   0  0  0  0  0  0  0  0  0  0  0  0
    1.6754    1.4969    0.0000 C   0  0  0  0  0  0  0  0  0  0  0  0
    4.7585    1.3716    0.0000 O   0  0  0  0  0  0  0  0  0  0  0  0
    1.6754    2.2473    0.0000 C   0  0  0  0  0  0  0  0  0  0  0  0
   -6.7334   -6.6529    0.0000 O   0  0  0  0  0  0  0  0  0  0  0  0
    4.7227    4.6065    0.0000 C   0  0  0  0  0  0  0  0  0  0  0  0
   -3.3197   -3.6235    0.0000 O   0  0  0  0  0  0  0  0  0  0  0  0
   -0.7728   -1.3538    0.0000 O   0  0  0  0  0  0  0  0  0  0  0  0
   -6.0273   -7.3142    0.0000 O   0  0  0  0  0  0  0  0  0  0  0  0
    2.8998    3.4271    0.0000 C   0  0  0  0  0  0  0  0  0  0  0  0
   -0.7908    2.2297    0.0000 C   0  0  0  0  0  0  0  0  0  0  0  0
   -3.3197    0.1742    0.0000 C   0  0  0  0  0  0  0  0  0  0  0  0
   -6.0273   -3.0697    0.0000 C   0  0  0  0  0  0  0  0  0  0  0  0
    4.1597    2.9979    0.0000 H   0  0  0  0  0  0  0  0  0  0  0  0
    2.9444    0.2994    0.0000 H   0  0  0  0  0  0  0  0  0  0  0  0
    3.5611    1.7380    0.0000 H   0  0  0  0  0  0  0  0  0  0  0  0
  2  1  1  0  0  0  0
  3  5  1  0  0  0  0
  4  1  1  0  0  0  0
  5  4  1  0  0  0  0
  7  6  1  0  0  0  0
  7  2  1  0  0  0  0
  8 21  1  0  0  0  0
  9 22  1  0  0  0  0
 10 31  1  0  0  0  0
 11 32  1  0  0  0  0
 12 39  1  0  0  0  0
 13 11  1  0  0  0  0
 14 10  1  0  0  0  0
 15 12  1  0  0  0  0
 16 11  1  0  0  0  0
 17 10  1  0  0  0  0
 18 12  1  0  0  0  0
 19  6  2  0  0  0  0
 20 41  1  0  0  0  0
 21 16  1  0  0  0  0
 22 18  1  0  0  0  0
 23 26  1  0  0  0  0
 24 13  1  0  0  0  0
 25 15  1  0  0  0  0
 26 17  1  0  0  0  0
 27 19  1  0  0  0  0
 28 14  1  0  0  0  0
 29  1  1  0  0  0  0
 30  2  1  0  0  0  0
  8 31  1  0  0  0  0
  9 32  1  0  0  0  0
 33  5  1  0  0  0  0
 34 38  1  0  0  0  0
 35 29  1  0  0  0  0
 36  3  1  0  0  0  0
 37  4  1  0  0  0  0
 38  6  1  0  0  0  0
 43 39  1  0  0  0  0
 40 20  1  0  0  0  0
 41 37  1  0  0  0  0
 42 27  2  0  0  0  0
 43 40  1  0  0  0  0
  1 44  1  0  0  0  0
 45 36  1  0  0  0  0
 23 46  1  0  0  0  0
  2 47  1  0  0  0  0
 21 48  1  0  0  0  0
 22 49  1  0  0  0  0
 26 50  1  0  0  0  0
  3 51  1  0  0  0  0
 25 52  1  0  0  0  0
 24 53  1  0  0  0  0
 28 54  1  0  0  0  0
  4 55  1  1  0  0  0
 20 56  1  0  0  0  0
  5 57  1  6  0  0  0
  7 35  1  0  0  0  0
 33 30  1  0  0  0  0
 20  3  1  0  0  0  0
 43 45  1  0  0  0  0
 27 34  1  0  0  0  0
  9 25  1  0  0  0  0
  8 24  1  0  0  0  0
 23 28  1  0  0  0  0
M  END
>  <IDNUMBER> (0449-0135)
0449-0135

>  <available> (0449-0135)
151

>  <H_acceptor> (0449-0135)
13

>  <H_donor> (0449-0135)
5

>  <B_rotN> (0449-0135)
12

>  <N_O> (0449-0135)
13

>  <logP> (0449-0135)
2.99

>  <logD> (0449-0135)
1.74

>  <logSw> (0449-0135)
-5.29

>  <PSA> (0449-0135)
182.83

>  <Chiral_centers> (0449-0135)
20

>  <Name> (0449-0135)
4-(7-{[5-({5-[(4,5-dihydroxy-6-methyloxan-2-yl)oxy]-4-hydroxy-6-methyloxan-2-yl}oxy)-4-hydroxy-6-methyloxan-2-yl]oxy}-3a-hydroxy-9a,11a-dimethyl-hexadecahydro-1H-cyclopenta[a]phenanthren-1-yl)-2,5-dih
ydrofuran-2-one

>  <Smile> (0449-0135)
CC1OC(OC2C(OC(OC3C(OC(OC4CC5C(C6C(C7(O)CCC(C7(C)CC6)C6=CC(OC6)=O)CC5)(C)CC4)CC3O)C)CC2O)C)CC(C1O)O

>  <Collection> (0449-0135)
DC

>  <InChI Key> (0449-0135)
WDJUZGPOPHTGOT-BMPBUTHOSA-N

>  <PERCENTSP3> (0449-0135)
92.7

$$$$

  -ISIS-  -- StrEd -- 

 15 16  0  0  0  0  0  0  0  0999 V2000
    0.5956   -1.3207    0.0000 C   0  0  0  0  0  0  0  0  0  0  0  0
    0.0379   -0.5176    0.0000 N   0  0  0  0  0  0  0  0  0  0  0  0
    0.0379   -2.1238    0.0000 O   0  0  0  0  0  0  0  0  0  0  0  0
   -0.9391   -0.8165    0.0000 C   0  0  0  0  0  0  0  0  0  0  0  0
   -0.9391   -1.8204    0.0000 C   0  0  0  0  0  0  0  0  0  0  0  0
    0.3814    0.4149    0.0000 C   0  0  0  0  0  0  0  0  0  0  0  0
    1.5906   -1.3207    0.0000 S   0  0  0  0  0  0  0  0  0  0  0  0
    1.3497    0.5755    0.0000 C   0  0  0  0  0  0  0  0  0  0  0  0
    1.6976    1.5124    0.0000 C   0  0  0  0  0  0  0  0  0  0  0  0
    1.0551    2.3246    0.0000 O   0  0  0  0  0  0  0  0  0  0  0  0
    2.6703    1.5839    0.0000 O   0  0  0  0  0  0  0  0  0  0  0  0
   -1.8092   -0.3079    0.0000 C   0  0  0  0  0  0  0  0  0  0  0  0
   -1.8092   -2.3246    0.0000 C   0  0  0  0  0  0  0  0  0  0  0  0
   -2.6703   -0.8165    0.0000 C   0  0  0  0  0  0  0  0  0  0  0  0
   -2.6703   -1.8204    0.0000 C   0  0  0  0  0  0  0  0  0  0  0  0
  2  1  1  0  0  0  0
  3  1  1  0  0  0  0
  4  2  1  0  0  0  0
  5  3  1  0  0  0  0
  6  2  1  0  0  0  0
  7  1  2  0  0  0  0
  8  6  1  0  0  0  0
  9  8  1  0  0  0  0
 10  9  2  0  0  0  0
 11  9  1  0  0  0  0
 12  4  1  0  0  0  0
 13  5  1  0  0  0  0
 14 12  2  0  0  0  0
 15 13  2  0  0  0  0
  5  4  2  0  0  0  0
 15 14  1  0  0  0  0
M  END
>  <IDNUMBER> (N013-0010)
N013-0010

>  <available> (N013-0010)
910

>  <H_acceptor> (N013-0010)
4

>  <H_donor> (N013-0010)
1

>  <B_rotN> (N013-0010)
4

>  <N_O> (N013-0010)
4

>  <logP> (N013-0010)
2.77

>  <logD> (N013-0010)
-1.17

>  <logSw> (N013-0010)
-0.37

>  <PSA> (N013-0010)
81.86

>  <Chiral_centers> (N013-0010)
0

>  <Name> (N013-0010)
3-(2-sulfanylidene-2,3-dihydro-1,3-benzoxazol-3-yl)propanoic acid

>  <Smile> (N013-0010)
C1(N(c2c(O1)cccc2)CCC(=O)O)=S

>  <Collection> (N013-0010)
DC

>  <InChI Key> (N013-0010)
QUSAZJGKDUUSPZ-UHFFFAOYSA-N

>  <PERCENTSP3> (N013-0010)
20

$$$$

  -ISIS-  -- StrEd -- 

 17 19  0  0  0  0  0  0  0  0999 V2000
   -1.6179   -0.7857    0.0000 O   0  0  0  0  0  0  0  0  0  0  0  0
   -0.6434   -0.5008    0.0000 C   0  0  0  0  0  0  0  0  0  0  0  0
    1.0923   -0.5008    0.0000 C   0  0  0  0  0  0  0  0  0  0  0  0
    1.9573   -0.9992    0.0000 O   0  0  0  0  0  0  0  0  0  0  0  0
   -0.6434    0.5011    0.0000 C   0  0  0  0  0  0  0  0  0  0  0  0
   -2.1654    0.0246    0.0000 C   0  0  1  0  0  0  0  0  0  0  0  0
    0.2217   -0.9992    0.0000 C   0  0  0  0  0  0  0  0  0  0  0  0
    1.0923    0.5011    0.0000 C   0  0  0  0  0  0  0  0  0  0  0  0
    2.8278   -0.5008    0.0000 C   0  0  0  0  0  0  0  0  0  0  0  0
    1.9573    0.9992    0.0000 C   0  0  0  0  0  0  0  0  0  0  0  0
   -1.6179    0.7911    0.0000 C   0  0  0  0  0  0  0  0  0  0  0  0
    0.2217    0.9992    0.0000 C   0  0  0  0  0  0  0  0  0  0  0  0
    2.8278    0.5011    0.0000 C   0  0  0  0  0  0  0  0  0  0  0  0
   -3.1947    0.0521    0.0000 C   0  0  0  0  0  0  0  0  0  0  0  0
    3.7203   -0.9718    0.0000 O   0  0  0  0  0  0  0  0  0  0  0  0
   -3.6657    0.9445    0.0000 C   0  0  0  0  0  0  0  0  0  0  0  0
   -3.7203   -0.7857    0.0000 C   0  0  0  0  0  0  0  0  0  0  0  0
  2  1  1  0  0  0  0
  3  7  1  0  0  0  0
  4  3  1  0  0  0  0
  5  2  1  0  0  0  0
  6  1  1  0  0  0  0
  7  2  2  0  0  0  0
  8  3  2  0  0  0  0
  9  4  1  0  0  0  0
 10  8  1  0  0  0  0
 11  6  1  0  0  0  0
 12  5  2  0  0  0  0
 13 10  2  0  0  0  0
  6 14  1  6  0  0  0
 15  9  2  0  0  0  0
 16 14  2  0  0  0  0
 17 14  1  0  0  0  0
  5 11  1  0  0  0  0
  8 12  1  0  0  0  0
  9 13  1  0  0  0  0
M  END
>  <IDNUMBER> (0080-0006)
0080-0006

>  <available> (0080-0006)
3327

>  <H_acceptor> (0080-0006)
3

>  <H_donor> (0080-0006)
0

>  <B_rotN> (0080-0006)
1

>  <N_O> (0080-0006)
3

>  <logP> (0080-0006)
2.97

>  <logD> (0080-0006)
3.28

>  <logSw> (0080-0006)
-4.76

>  <PSA> (0080-0006)
35.53

>  <Chiral_centers> (0080-0006)
1

>  <Name> (0080-0006)
2-(prop-1-en-2-yl)-2H,3H,7H-furo[3,2-g]chromen-7-one

>  <Smile> (0080-0006)
CC(C1Oc2c(C1)cc1c(c2)OC(C=C1)=O)=C

>  <Collection> (0080-0006)
DC

>  <InChI Key> (0080-0006)
VMWUHWZFDITAOL-NSHDSACASA-N

>  <PERCENTSP3> (0080-0006)
21.4

$$$$

  -ISIS-  -- StrEd -- 

 28 31  0  0  1  0  0  0  0  0999 V2000
   -3.6428    0.4190    0.0000 C   0  0  0  0  0  0  0  0  0  0  0  0
   -3.1410    1.2694    0.0000 C   0  0  0  0  0  0  0  0  0  0  0  0
   -0.0887   -0.4068    0.0000 O   0  0  0  0  0  0  0  0  0  0  0  0
    0.8474   -0.1130    0.0000 C   0  0  0  0  0  0  0  0  0  0  0  0
    2.5846   -0.1130    0.0000 C   0  0  0  0  0  0  0  0  0  0  0  0
    3.4349   -0.6086    0.0000 O   0  0  0  0  0  0  0  0  0  0  0  0
   -0.6453    0.3886    0.0000 C   0  0  2  0  0  0  0  0  0  0  0  0
    0.8474    0.8901    0.0000 C   0  0  0  0  0  0  0  0  0  0  0  0
   -4.6397    0.4190    0.0000 C   0  0  0  0  0  0  0  0  0  0  0  0
   -2.1439    1.2694    0.0000 O   0  0  0  0  0  0  0  0  0  0  0  0
    1.7282   -0.6086    0.0000 C   0  0  0  0  0  0  0  0  0  0  0  0
   -1.6484    0.3886    0.0000 C   0  0  0  0  0  0  0  0  0  0  0  0
    2.5846    0.8901    0.0000 C   0  0  0  0  0  0  0  0  0  0  0  0
    4.3157   -0.1130    0.0000 C   0  0  0  0  0  0  0  0  0  0  0  0
    3.4349    1.3855    0.0000 C   0  0  0  0  0  0  0  0  0  0  0  0
   -0.0887    1.2080    0.0000 C   0  0  0  0  0  0  0  0  0  0  0  0
    1.7282    1.3855    0.0000 C   0  0  0  0  0  0  0  0  0  0  0  0
    4.3157    0.8901    0.0000 C   0  0  0  0  0  0  0  0  0  0  0  0
   -3.1410   -0.4618    0.0000 C   0  0  0  0  0  0  0  0  0  0  0  0
   -5.1415   -0.4313    0.0000 C   0  0  0  0  0  0  0  0  0  0  0  0
   -3.6428    2.1195    0.0000 O   0  0  0  0  0  0  0  0  0  0  0  0
    5.1966   -0.6086    0.0000 O   0  0  0  0  0  0  0  0  0  0  0  0
   -4.6397   -1.2876    0.0000 C   0  0  0  0  0  0  0  0  0  0  0  0
   -5.1966    1.3428    0.0000 Cl  0  0  0  0  0  0  0  0  0  0  0  0
   -3.6428   -1.3121    0.0000 C   0  0  0  0  0  0  0  0  0  0  0  0
   -5.1966   -2.1195    0.0000 Cl  0  0  0  0  0  0  0  0  0  0  0  0
   -2.1439   -0.4618    0.0000 C   0  0  0  0  0  0  0  0  0  0  0  0
   -1.1592   -0.5231    0.0000 C   0  0  0  0  0  0  0  0  0  0  0  0
  2  1  1  0  0  0  0
  3  7  1  0  0  0  0
  4  3  1  0  0  0  0
  5 11  1  0  0  0  0
  6  5  1  0  0  0  0
  7 12  1  6  0  0  0
  8 16  1  0  0  0  0
  9  1  2  0  0  0  0
 10  2  1  0  0  0  0
 11  4  2  0  0  0  0
 12 10  1  0  0  0  0
 13 17  1  0  0  0  0
 14  6  1  0  0  0  0
 15 13  1  0  0  0  0
 16  7  1  0  0  0  0
 17  8  2  0  0  0  0
 18 15  2  0  0  0  0
 19  1  1  0  0  0  0
 20  9  1  0  0  0  0
 21  2  2  0  0  0  0
 22 14  2  0  0  0  0
 23 25  1  0  0  0  0
 24  9  1  0  0  0  0
 25 19  2  0  0  0  0
 26 23  1  0  0  0  0
 12 27  1  0  0  0  0
 28 12  1  0  0  0  0
 23 20  2  0  0  0  0
  8  4  1  0  0  0  0
 13  5  2  0  0  0  0
 14 18  1  0  0  0  0
M  END
>  <IDNUMBER> (N005-0007)
N005-0007

>  <available> (N005-0007)
32

>  <H_acceptor> (N005-0007)
7

>  <H_donor> (N005-0007)
0

>  <B_rotN> (N005-0007)
4

>  <N_O> (N005-0007)
5

>  <logP> (N005-0007)
5.3

>  <logD> (N005-0007)
5.64

>  <logSw> (N005-0007)
-7.4

>  <PSA> (N005-0007)
61.83

>  <Chiral_centers> (N005-0007)
1

>  <Name> (N005-0007)
2-{7-oxo-2H,3H,7H-furo[3,2-g]chromen-2-yl}propan-2-yl 2,4-dichlorobenzoate

>  <Smile> (N005-0007)
CC(C1Oc2c(C1)cc1c(c2)OC(C=C1)=O)(OC(c1ccc(cc1Cl)Cl)=O)C

>  <Collection> (N005-0007)
DC

>  <InChI Key> (N005-0007)
TUEJOWGKTTYSKR-SFHVURJKSA-N

>  <PERCENTSP3> (N005-0007)
23.8

$$$$

  -ISIS-  -- StrEd -- 

 45 51  0  0  0  0  0  0  0  0999 V2000
    1.7698    1.3037    0.0000 C   0  0  0  0  0  0  0  0  0  0  0  0
    2.5547   -0.0869    0.0000 C   0  0  0  0  0  0  0  0  0  0  0  0
    1.7698    2.2150    0.0000 O   0  0  0  0  0  0  0  0  0  0  0  0
    2.5547    0.8348    0.0000 C   0  0  0  0  0  0  0  0  0  0  0  0
   -2.5284    2.2150    0.0000 C   0  0  0  0  0  0  0  0  0  0  0  0
    3.3764   -0.5295    0.0000 C   0  0  0  0  0  0  0  0  0  0  0  0
    0.9849    0.8242    0.0000 C   0  0  0  0  0  0  0  0  0  0  0  0
   -3.3502    1.7197    0.0000 C   0  0  0  0  0  0  0  0  0  0  0  0
   -0.8955    2.2150    0.0000 C   0  0  0  0  0  0  0  0  0  0  0  0
    1.7698   -0.5295    0.0000 C   0  0  0  0  0  0  0  0  0  0  0  0
    4.1718   -0.0869    0.0000 N   0  0  0  0  0  0  0  0  0  0  0  0
   -4.1718    2.1886    0.0000 N   0  0  0  0  0  0  0  0  0  0  0  0
   -1.7172    1.7197    0.0000 C   0  0  0  0  0  0  0  0  0  0  0  0
   -2.5284    3.1262    0.0000 C   0  0  0  0  0  0  0  0  0  0  0  0
    0.9849   -0.0869    0.0000 C   0  0  0  0  0  0  0  0  0  0  0  0
   -1.4012   -1.2353    0.0000 C   0  0  0  0  0  0  0  0  0  0  0  0
   -0.4425   -2.8680    0.0000 O   0  0  0  0  0  0  0  0  0  0  0  0
   -0.8955    3.1471    0.0000 C   0  0  0  0  0  0  0  0  0  0  0  0
    3.3764    1.3037    0.0000 C   0  0  0  0  0  0  0  0  0  0  0  0
   -1.7172    3.5951    0.0000 C   0  0  0  0  0  0  0  0  0  0  0  0
   -3.3502    0.5084    0.0000 C   0  0  0  0  0  0  0  0  0  0  0  0
    4.1718    0.8242    0.0000 C   0  0  0  0  0  0  0  0  0  0  0  0
    3.3764   -1.4512    0.0000 C   0  0  0  0  0  0  0  0  0  0  0  0
   -1.9068   -0.4292    0.0000 C   0  0  0  0  0  0  0  0  0  0  0  0
   -1.8858   -2.0357    0.0000 C   0  0  0  0  0  0  0  0  0  0  0  0
   -4.1718    3.1471    0.0000 C   0  0  0  0  0  0  0  0  0  0  0  0
   -2.8445   -0.4292    0.0000 C   0  0  0  0  0  0  0  0  0  0  0  0
   -3.3502    3.6161    0.0000 C   0  0  0  0  0  0  0  0  0  0  0  0
    0.9479   -2.8576    0.0000 C   0  0  0  0  0  0  0  0  0  0  0  0
   -2.8181   -2.0357    0.0000 C   0  0  0  0  0  0  0  0  0  0  0  0
    0.1790    1.2669    0.0000 O   0  0  0  0  0  0  0  0  0  0  0  0
    2.5810   -1.9198    0.0000 C   0  0  0  0  0  0  0  0  0  0  0  0
    0.1895   -0.5295    0.0000 O   0  0  0  0  0  0  0  0  0  0  0  0
   -3.3236   -1.2353    0.0000 C   0  0  0  0  0  0  0  0  0  0  0  0
   -0.1001    3.6161    0.0000 O   0  0  0  0  0  0  0  0  0  0  0  0
    1.7698   -3.3211    0.0000 C   0  0  0  0  0  0  0  0  0  0  0  0
    0.9479   -1.9198    0.0000 C   0  0  0  0  0  0  0  0  0  0  0  0
    2.5810   -2.8576    0.0000 C   0  0  0  0  0  0  0  0  0  0  0  0
    1.7698   -1.4512    0.0000 C   0  0  0  0  0  0  0  0  0  0  0  0
   -1.4274   -2.8154    0.0000 O   0  0  0  0  0  0  0  0  0  0  0  0
   -4.9671    1.6935    0.0000 C   0  0  0  0  0  0  0  0  0  0  0  0
    4.9671   -0.5295    0.0000 C   0  0  0  0  0  0  0  0  0  0  0  0
   -0.5953   -0.0869    0.0000 C   0  0  0  0  0  0  0  0  0  0  0  0
    0.7216    3.1737    0.0000 C   0  0  0  0  0  0  0  0  0  0  0  0
   -1.8594   -3.6161    0.0000 C   0  0  0  0  0  0  0  0  0  0  0  0
  2  4  2  0  0  0  0
  3  1  1  0  0  0  0
  4  1  1  0  0  0  0
  5 13  2  0  0  0  0
  6  2  1  0  0  0  0
  7  1  2  0  0  0  0
  8  5  1  0  0  0  0
  9  3  1  0  0  0  0
 10 15  2  0  0  0  0
 11 22  1  0  0  0  0
 12  8  1  0  0  0  0
 13  9  1  0  0  0  0
 14 20  2  0  0  0  0
 15  7  1  0  0  0  0
 16 24  2  0  0  0  0
 17 29  1  0  0  0  0
 18  9  2  0  0  0  0
 19  4  1  0  0  0  0
 20 18  1  0  0  0  0
 21  8  1  0  0  0  0
 22 19  1  0  0  0  0
 23  6  1  0  0  0  0
 24 27  1  0  0  0  0
 25 30  2  0  0  0  0
 26 28  1  0  0  0  0
 27 21  1  0  0  0  0
 28 14  1  0  0  0  0
 29 37  2  0  0  0  0
 30 34  1  0  0  0  0
 31  7  1  0  0  0  0
 32 23  1  0  0  0  0
 33 15  1  0  0  0  0
 34 27  2  0  0  0  0
 35 18  1  0  0  0  0
 36 38  2  0  0  0  0
 37 39  1  0  0  0  0
 38 32  1  0  0  0  0
 39 32  2  0  0  0  0
 40 25  1  0  0  0  0
 41 12  1  0  0  0  0
 42 11  1  0  0  0  0
 43 33  1  0  0  0  0
 44 35  1  0  0  0  0
 45 40  1  0  0  0  0
 10  2  1  0  0  0  0
 11  6  1  0  0  0  0
  5 14  1  0  0  0  0
 36 29  1  0  0  0  0
 12 26  1  0  0  0  0
 17 16  1  0  0  0  0
 25 16  1  0  0  0  0
M  END
>  <IDNUMBER> (N036-0102)
N036-0102

>  <available> (N036-0102)
170

>  <H_acceptor> (N036-0102)
8

>  <H_donor> (N036-0102)
1

>  <B_rotN> (N036-0102)
4

>  <N_O> (N036-0102)
8

>  <logP> (N036-0102)
6.97

>  <logD> (N036-0102)
4.82

>  <logSw> (N036-0102)
-6.16

>  <PSA> (N036-0102)
72.86

>  <Chiral_centers> (N036-0102)
2

>  <Name> (N036-0102)
5,20,31-TRIMETHOXY-11,26-DIMETHYL-2,18-DIOXA-11,26-DIAZAHEPTACYCLO[23.6.2.2^(14,17).1^(19,23).0^(3,8).0^(7,12).0^(29,33)]HEXATRIACONTA-1(31),3,5,7,14,16,19(34),20,22,29,32,35-DODECAEN-4-OL

>  <Smile> (N036-0102)
COc1c2Oc3ccc(CC4c5cc(c(c(c5CCN4C)Oc4c(cc5c(C(Cc(c2)cc1)N(CC5)C)c4)OC)O)OC)cc3

>  <Collection> (N036-0102)
DC

>  <InChI Key> (N036-0102)
CASHVZNATRNXDE-UHFFFAOYSA-N

>  <PERCENTSP3> (N036-0102)
35.1

$$$$

  -ISIS-  -- StrEd -- 

 23 25  0  0  0  0  0  0  0  0999 V2000
    0.4513   -0.1325    0.0000 C   0  0  0  0  0  0  0  0  0  0  0  0
    1.3109   -0.6483    0.0000 N   0  0  0  0  0  0  0  0  0  0  0  0
    0.4513    0.8560    0.0000 C   0  0  0  0  0  0  0  0  0  0  0  0
   -0.4084   -0.6483    0.0000 C   0  0  0  0  0  0  0  0  0  0  0  0
    2.1705    0.8560    0.0000 C   0  0  0  0  0  0  0  0  0  0  0  0
    2.1705   -0.1325    0.0000 C   0  0  0  0  0  0  0  0  0  0  0  0
    1.3109    1.3610    0.0000 C   0  0  0  0  0  0  0  0  0  0  0  0
   -1.0781   -1.3896    0.0000 C   0  0  0  0  0  0  0  0  0  0  0  0
   -0.4084    1.3610    0.0000 C   0  0  0  0  0  0  0  0  0  0  0  0
    3.1266   -0.4513    0.0000 O   0  0  0  0  0  0  0  0  0  0  0  0
    3.1266    1.1819    0.0000 C   0  0  0  0  0  0  0  0  0  0  0  0
   -2.0594   -1.1819    0.0000 C   0  0  0  0  0  0  0  0  0  0  0  0
   -1.2857   -0.1325    0.0000 C   0  0  0  0  0  0  0  0  0  0  0  0
    3.6997    0.3724    0.0000 C   0  0  0  0  0  0  0  0  0  0  0  0
   -1.2857    0.8560    0.0000 C   0  0  0  0  0  0  0  0  0  0  0  0
   -2.7184   -1.9233    0.0000 C   0  0  0  0  0  0  0  0  0  0  0  0
   -0.4084   -1.6475    0.0000 O   0  0  0  0  0  0  0  0  0  0  0  0
    1.3109    2.3674    0.0000 O   0  0  0  0  0  0  0  0  0  0  0  0
   -2.1705   -0.6483    0.0000 O   0  0  0  0  0  0  0  0  0  0  0  0
   -3.6997   -1.7155    0.0000 C   0  0  0  0  0  0  0  0  0  0  0  0
   -2.4031   -2.8580    0.0000 C   0  0  0  0  0  0  0  0  0  0  0  0
    0.4513   -2.1381    0.0000 C   0  0  0  0  0  0  0  0  0  0  0  0
    2.1705    2.8580    0.0000 C   0  0  0  0  0  0  0  0  0  0  0  0
  2  1  1  0  0  0  0
  3  1  2  0  0  0  0
  4  1  1  0  0  0  0
  5  7  2  0  0  0  0
  6  2  2  0  0  0  0
  7  3  1  0  0  0  0
  4  8  1  0  0  0  0
  9  3  1  0  0  0  0
 10  6  1  0  0  0  0
 11  5  1  0  0  0  0
 12  8  1  0  0  0  0
 13  4  1  0  0  0  0
 14 10  1  0  0  0  0
 15 13  1  0  0  0  0
 16 12  2  0  0  0  0
 17  4  1  0  0  0  0
 18  7  1  0  0  0  0
 13 19  1  0  0  0  0
 20 16  1  0  0  0  0
 21 16  1  0  0  0  0
 22 17  1  0  0  0  0
 23 18  1  0  0  0  0
  6  5  1  0  0  0  0
  9 15  1  0  0  0  0
 11 14  2  0  0  0  0
M  END
>  <IDNUMBER> (N038-0206)
N038-0206

>  <available> (N038-0206)
155

>  <H_acceptor> (N038-0206)
5

>  <H_donor> (N038-0206)
1

>  <B_rotN> (N038-0206)
5

>  <N_O> (N038-0206)
5

>  <logP> (N038-0206)
2.4

>  <logD> (N038-0206)
2.71

>  <logSw> (N038-0206)
-3.67

>  <PSA> (N038-0206)
64.72

>  <Chiral_centers> (N038-0206)
2

>  <Name> (N038-0206)
4,8-dimethoxy-8-(3-methylbut-2-en-1-yl)-5H,6H,7H,8H-furo[2,3-b]quinolin-7-ol

>  <Smile> (N038-0206)
COc1c2c(C(C(CC2)O)(CC=C(C)C)OC)[nH0]c2c1C=CO2

>  <Collection> (N038-0206)
NC

>  <InChI Key> (N038-0206)
RNZIQNGNLJSLHV-UHFFFAOYSA-N

>  <PERCENTSP3> (N038-0206)
50

$$$$

  -ISIS-  -- StrEd -- 

 23 24  0  0  0  0  0  0  0  0999 V2000
   -2.1577   -1.0048    0.0000 N   0  3  0  0  0  0  0  0  0  0  0  0
    1.6920    0.5265    0.0000 C   0  0  0  0  0  0  0  0  0  0  0  0
    0.7003    0.5177    0.0000 C   0  0  0  0  0  0  0  0  0  0  0  0
   -2.1577   -0.0043    0.0000 C   0  0  2  0  0  0  0  0  0  0  0  0
   -1.1788    0.3089    0.0000 C   0  0  2  0  0  0  0  0  0  0  0  0
   -2.1577   -2.0097    0.0000 O   0  5  0  0  0  0  0  0  0  0  0  0
   -1.1788   -1.3179    0.0000 C   0  0  0  0  0  0  0  0  0  0  0  0
    0.1479    1.3225    0.0000 O   0  0  0  0  0  0  0  0  0  0  0  0
    0.1784   -0.3696    0.0000 O   0  0  0  0  0  0  0  0  0  0  0  0
   -0.8352    1.2486    0.0000 C   0  0  0  0  0  0  0  0  0  0  0  0
    2.6753    0.5177    0.0000 C   0  0  0  0  0  0  0  0  0  0  0  0
   -0.6133   -0.5045    0.0000 C   0  0  0  0  0  0  0  0  0  0  0  0
    1.6920    1.5097    0.0000 C   0  0  0  0  0  0  0  0  0  0  0  0
    1.6920   -0.4521    0.0000 O   0  0  0  0  0  0  0  0  0  0  0  0
   -3.1407   -1.3179    0.0000 C   0  0  0  0  0  0  0  0  0  0  0  0
    2.6838    1.5097    0.0000 O   0  0  0  0  0  0  0  0  0  0  0  0
   -3.1407    0.3089    0.0000 C   0  0  0  0  0  0  0  0  0  0  0  0
   -3.7061   -0.5045    0.0000 C   0  0  0  0  0  0  0  0  0  0  0  0
    3.7061    0.5265    0.0000 C   0  0  0  0  0  0  0  0  0  0  0  0
    0.8352    2.0097    0.0000 C   0  0  0  0  0  0  0  0  0  0  0  0
    2.5489    1.9880    0.0000 C   0  0  0  0  0  0  0  0  0  0  0  0
   -2.1577    1.0007    0.0000 H   0  0  0  0  0  0  0  0  0  0  0  0
    2.6753   -0.4654    0.0000 H   0  0  0  0  0  0  0  0  0  0  0  0
  2  3  1  0  0  0  0
  3  8  1  0  0  0  0
  4  1  1  0  0  0  0
  5  4  1  0  0  0  0
  6  1  1  0  0  0  0
  7  1  1  0  0  0  0
  8 10  1  0  0  0  0
  9  3  2  0  0  0  0
  5 10  1  6  0  0  0
  2 11  1  0  0  0  0
 12  7  1  0  0  0  0
 13  2  1  0  0  0  0
 14  2  1  0  0  0  0
 15  1  1  0  0  0  0
 11 16  1  0  0  0  0
 17  4  1  0  0  0  0
 18 15  1  0  0  0  0
 19 11  1  0  0  0  0
 20 13  1  0  0  0  0
 21 13  1  0  0  0  0
  4 22  1  6  0  0  0
 23 11  1  0  0  0  0
 18 17  1  0  0  0  0
  5 12  1  0  0  0  0
M  CHG  2   1   1   6  -1
M  END
>  <IDNUMBER> (N037-0025)
N037-0025

>  <available> (N037-0025)
205

>  <H_acceptor> (N037-0025)
5

>  <H_donor> (N037-0025)
2

>  <B_rotN> (N037-0025)
8

>  <N_O> (N037-0025)
6

>  <logP> (N037-0025)
0.8

>  <logD> (N037-0025)
1.07

>  <logSw> (N037-0025)
-0.58

>  <PSA> (N037-0025)
83.83

>  <Chiral_centers> (N037-0025)
4

>  <Name> (N037-0025)
1-({[2,3-dihydroxy-2-(propan-2-yl)butanoyl]oxy}methyl)-octahydropyrrolizin-4-ium-4-olate

>  <Smile> (N037-0025)
CC(C(C(OCC1C2[N+](CCC2)(CC1)[O-])=O)(C(C)O)O)C

>  <Collection> (N037-0025)
DC

>  <InChI Key> (N037-0025)
DLNWZIVYKQXLTN-IKZJNQNNSA-N

>  <PERCENTSP3> (N037-0025)
93.3

$$$$

  -ISIS-  -- StrEd -- 

 28 31  0  0  0  0  0  0  0  0999 V2000
    1.1934   -1.3151    0.0000 N   0  0  0  0  0  0  0  0  0  0  0  0
    1.1934   -0.3027    0.0000 C   0  0  0  0  0  0  0  0  0  0  0  0
    0.2061   -1.3151    0.0000 C   0  0  0  0  0  0  0  0  0  0  0  0
    0.2061   -0.3027    0.0000 C   0  0  0  0  0  0  0  0  0  0  0  0
    2.1463   -1.6129    0.0000 C   0  0  0  0  0  0  0  0  0  0  0  0
    2.1214    0.0148    0.0000 S   0  0  0  0  0  0  0  0  0  0  0  0
   -1.4118    0.1638    0.0000 C   0  0  0  0  0  0  0  0  0  0  0  0
    2.7220   -0.8039    0.0000 C   0  0  0  0  0  0  0  0  0  0  0  0
   -0.4741    0.4020    0.0000 N   0  0  0  0  0  0  0  0  0  0  0  0
   -2.0817    0.8734    0.0000 C   0  0  0  0  0  0  0  0  0  0  0  0
   -2.7715    2.3274    0.0000 N   0  0  0  0  0  0  0  0  0  0  0  0
   -1.8981    1.8609    0.0000 C   0  0  0  0  0  0  0  0  0  0  0  0
    2.4786   -2.5507    0.0000 C   0  0  0  0  0  0  0  0  0  0  0  0
   -3.4612    1.6574    0.0000 O   0  0  0  0  0  0  0  0  0  0  0  0
   -0.4741   -2.0149    0.0000 O   0  0  0  0  0  0  0  0  0  0  0  0
   -3.0494    0.7543    0.0000 C   0  0  0  0  0  0  0  0  0  0  0  0
   -1.6848   -0.8039    0.0000 O   0  0  0  0  0  0  0  0  0  0  0  0
    1.7097   -3.7169    0.0000 O   0  5  0  0  0  0  0  0  0  0  0  0
    3.4664   -2.7493    0.0000 O   0  0  0  0  0  0  0  0  0  0  0  0
   -1.0148    2.2976    0.0000 C   0  0  0  0  0  0  0  0  0  0  0  0
    3.5110   -1.4341    0.0000 C   0  0  0  0  0  0  0  0  0  0  0  0
    3.3719   -0.1340    0.0000 C   0  0  0  0  0  0  0  0  0  0  0  0
   -3.5110   -0.1042    0.0000 C   0  0  0  0  0  0  0  0  0  0  0  0
   -0.2011    1.7714    0.0000 C   0  0  0  0  0  0  0  0  0  0  0  0
   -0.9602    3.2703    0.0000 C   0  0  0  0  0  0  0  0  0  0  0  0
   -0.0818    3.7169    0.0000 C   0  0  0  0  0  0  0  0  0  0  0  0
    0.6825    2.2081    0.0000 C   0  0  0  0  0  0  0  0  0  0  0  0
    0.7517    3.1858    0.0000 C   0  0  0  0  0  0  0  0  0  0  0  0
  2  1  1  0  0  0  0
  3  1  1  0  0  0  0
  4  3  1  0  0  0  0
  5  1  1  0  0  0  0
  6  2  1  0  0  0  0
  7  9  1  0  0  0  0
  8  5  1  0  0  0  0
  4  9  1  0  0  0  0
 10  7  1  0  0  0  0
 11 12  2  0  0  0  0
 12 10  1  0  0  0  0
  5 13  1  0  0  0  0
 14 16  1  0  0  0  0
 15  3  2  0  0  0  0
 16 10  2  0  0  0  0
 17  7  2  0  0  0  0
 18 13  1  0  0  0  0
 19 13  2  0  0  0  0
 20 12  1  0  0  0  0
 21  8  1  0  0  0  0
  8 22  1  0  0  0  0
 23 16  1  0  0  0  0
 24 20  2  0  0  0  0
 25 20  1  0  0  0  0
 26 25  2  0  0  0  0
 27 24  1  0  0  0  0
 28 26  1  0  0  0  0
  8  6  1  0  0  0  0
  4  2  1  0  0  0  0
 14 11  1  0  0  0  0
 27 28  2  0  0  0  0
M  CHG  1  18  -1
M  END
>  <IDNUMBER> (N084-1035)
N084-1035

>  <available> (N084-1035)
147

>  <Saltdata> (N084-1035)
Na+

>  <H_acceptor> (N084-1035)
5

>  <H_donor> (N084-1035)
1

>  <B_rotN> (N084-1035)
2

>  <N_O> (N084-1035)
8

>  <logP> (N084-1035)
2.2

>  <logD> (N084-1035)
0.2

>  <logSw> (N084-1035)
-2.65

>  <PSA> (N084-1035)
140.87

>  <Chiral_centers> (N084-1035)
3

>  <Name> (N084-1035)
3,3-dimethyl-6-(5-methyl-3-phenyl-1,2-oxazole-4-amido)-7-oxo-4-thia-1-azabicyclo[3.2.0]heptane-2-carboxylate

>  <Smile> (N084-1035)
c1ccc(C2C(C(NC3C4N(C(C(S4)(C)C)C([O-])=O)C3=O)=O)=C(ON=2)C)cc1

>  <Collection> (N084-1035)
DC

>  <CLNUMBER> (N084-1035)
CL2451

>  <InChI Key> (N084-1035)
UWYHMGVUTGAWSP-UHFFFAOYSA-M

>  <PERCENTSP3> (N084-1035)
36.8

$$$$

  -ISIS-  -- StrEd -- 

 34 36  0  0  0  0  0  0  0  0999 V2000
    0.1347    0.3993    0.0000 C   0  0  0  0  0  0  0  0  0  0  0  0
    1.1745    0.3993    0.0000 C   0  0  0  0  0  0  0  0  0  0  0  0
   -0.4560    1.2358    0.0000 C   0  0  0  0  0  0  0  0  0  0  0  0
   -1.4393    0.9524    0.0000 C   0  0  0  0  0  0  0  0  0  0  0  0
    1.8126   -0.3947    0.0000 C   0  0  0  0  0  0  0  0  0  0  0  0
   -2.1717    1.6660    0.0000 C   0  0  0  0  0  0  0  0  0  0  0  0
   -0.4986   -0.3947    0.0000 C   0  0  0  0  0  0  0  0  0  0  0  0
   -0.2150    2.2143    0.0000 C   0  0  0  0  0  0  0  0  0  0  0  0
    0.6215   -1.7936    0.0000 C   0  0  0  0  0  0  0  0  0  0  0  0
    1.5669   -1.3731    0.0000 C   0  0  0  0  0  0  0  0  0  0  0  0
    1.8362    1.2358    0.0000 C   0  0  1  0  0  0  0  0  0  0  0  0
   -0.2718   -1.3873    0.0000 C   0  0  0  0  0  0  0  0  0  0  0  0
   -1.9307    2.6255    0.0000 C   0  0  0  0  0  0  0  0  0  0  0  0
    2.5074    0.4183    0.0000 N   0  0  0  0  0  0  0  0  0  0  0  0
   -0.9666    2.9092    0.0000 C   0  0  0  0  0  0  0  0  0  0  0  0
    0.6027   -2.8053    0.0000 N   0  0  0  0  0  0  0  0  0  0  0  0
    2.8571   -0.4514    0.0000 C   0  0  0  0  0  0  0  0  0  0  0  0
    0.6642    2.6540    0.0000 C   0  0  0  0  0  0  0  0  0  0  0  0
    2.3609   -1.9970    0.0000 O   0  0  0  0  0  0  0  0  0  0  0  0
    1.5858    2.2191    0.0000 C   0  0  0  0  0  0  0  0  0  0  0  0
    2.4176   -1.1038    0.0000 O   0  0  0  0  0  0  0  0  0  0  0  0
   -1.6897   -0.0261    0.0000 O   0  0  0  0  0  0  0  0  0  0  0  0
   -3.1360    1.4061    0.0000 O   0  0  0  0  0  0  0  0  0  0  0  0
   -2.6445    3.2968    0.0000 O   0  0  0  0  0  0  0  0  0  0  0  0
    1.4582   -3.3015    0.0000 C   0  0  0  0  0  0  0  0  0  0  0  0
    3.8356   -0.4514    0.0000 C   0  0  0  0  0  0  0  0  0  0  0  0
   -2.6445   -0.2813    0.0000 C   0  0  0  0  0  0  0  0  0  0  0  0
   -3.8356    2.1199    0.0000 C   0  0  0  0  0  0  0  0  0  0  0  0
   -2.4176    4.2846    0.0000 C   0  0  0  0  0  0  0  0  0  0  0  0
    2.3230   -2.8147    0.0000 C   0  0  0  0  0  0  0  0  0  0  0  0
    1.4582   -4.2846    0.0000 C   0  0  0  0  0  0  0  0  0  0  0  0
    3.1880   -3.3157    0.0000 C   0  0  0  0  0  0  0  0  0  0  0  0
    2.6493    1.7606    0.0000 H   0  0  0  0  0  0  0  0  0  0  0  0
    3.4953    0.5741    0.0000 H   0  0  0  0  0  0  0  0  0  0  0  0
  2  1  1  0  0  0  0
  3  1  1  0  0  0  0
  4  3  1  0  0  0  0
  5  2  2  0  0  0  0
  6  4  2  0  0  0  0
  7  1  2  0  0  0  0
  8  3  2  0  0  0  0
  9 12  2  0  0  0  0
 10  5  1  0  0  0  0
 11  2  1  0  0  0  0
 12  7  1  0  0  0  0
 13 15  2  0  0  0  0
 11 14  1  6  0  0  0
 15  8  1  0  0  0  0
 16  9  1  0  0  0  0
 17 14  1  0  0  0  0
 18  8  1  0  0  0  0
 19 10  2  0  0  0  0
 20 11  1  0  0  0  0
 21 17  2  0  0  0  0
 22  4  1  0  0  0  0
 23  6  1  0  0  0  0
 24 13  1  0  0  0  0
 25 16  1  0  0  0  0
 26 17  1  0  0  0  0
 27 22  1  0  0  0  0
 28 23  1  0  0  0  0
 29 24  1  0  0  0  0
 30 25  1  0  0  0  0
 31 25  1  0  0  0  0
 32 30  1  0  0  0  0
 11 33  1  1  0  0  0
 34 14  1  0  0  0  0
 20 18  1  0  0  0  0
  9 10  1  0  0  0  0
 13  6  1  0  0  0  0
M  END
>  <IDNUMBER> (N051-0053)
N051-0053

>  <available> (N051-0053)
24

>  <H_acceptor> (N051-0053)
5

>  <H_donor> (N051-0053)
2

>  <B_rotN> (N051-0053)
8

>  <N_O> (N051-0053)
7

>  <logP> (N051-0053)
2.92

>  <logD> (N051-0053)
1.95

>  <logSw> (N051-0053)
-1.25

>  <PSA> (N051-0053)
85.89

>  <Chiral_centers> (N051-0053)
2

>  <Name> (N051-0053)
N-{14-[(BUTAN-2-YL)AMINO]-3,4,5-TRIMETHOXY-13-OXOTRICYCLO[9.5.0.0^(2,7)]HEXADECA-1(16),2,4,6,11,14-HEXAEN-10-YL}ACETAMIDE

>  <Smile> (N051-0053)
CCC(Nc1ccc2c3c(c(OC)c(cc3CCC(c2cc1=O)NC(=O)C)OC)OC)C

>  <Collection> (N051-0053)
DC

>  <InChI Key> (N051-0053)
WJDNCFAZVPJJSR-PKDNWHCCSA-N

>  <PERCENTSP3> (N051-0053)
44

$$$$

  -ISIS-  -- StrEd -- 

 33 35  0  0  1  0  0  0  0  0999 V2000
    0.1404   -0.0900    0.0000 C   0  0  0  0  0  0  0  0  0  0  0  0
    1.1780   -0.0900    0.0000 C   0  0  0  0  0  0  0  0  0  0  0  0
   -0.4579    0.7519    0.0000 C   0  0  0  0  0  0  0  0  0  0  0  0
   -1.4429    0.4659    0.0000 C   0  0  0  0  0  0  0  0  0  0  0  0
    1.8135   -0.8950    0.0000 C   0  0  0  0  0  0  0  0  0  0  0  0
   -2.1630    1.1807    0.0000 C   0  0  0  0  0  0  0  0  0  0  0  0
   -0.4952   -0.8950    0.0000 C   0  0  0  0  0  0  0  0  0  0  0  0
   -0.2197    1.7262    0.0000 C   0  0  0  0  0  0  0  0  0  0  0  0
    1.5594   -1.8533    0.0000 C   0  0  0  0  0  0  0  0  0  0  0  0
    1.8295    0.7519    0.0000 C   0  0  1  0  0  0  0  0  0  0  0  0
   -1.9353    2.1339    0.0000 C   0  0  0  0  0  0  0  0  0  0  0  0
    0.6223   -2.2768    0.0000 C   0  0  0  0  0  0  0  0  0  0  0  0
   -0.2673   -1.8692    0.0000 C   0  0  0  0  0  0  0  0  0  0  0  0
    2.4966   -0.0687    0.0000 N   0  0  0  0  0  0  0  0  0  0  0  0
   -0.9663    2.4093    0.0000 C   0  0  0  0  0  0  0  0  0  0  0  0
    2.8567   -0.9425    0.0000 C   0  0  0  0  0  0  0  0  0  0  0  0
    0.6698    2.1551    0.0000 C   0  0  0  0  0  0  0  0  0  0  0  0
    2.3483   -2.4833    0.0000 O   0  0  0  0  0  0  0  0  0  0  0  0
    1.5858    1.7262    0.0000 C   0  0  0  0  0  0  0  0  0  0  0  0
    2.4119   -1.5937    0.0000 O   0  0  0  0  0  0  0  0  0  0  0  0
    0.5905   -3.2829    0.0000 N   0  0  0  0  0  0  0  0  0  0  0  0
   -1.6970   -0.5136    0.0000 O   0  0  0  0  0  0  0  0  0  0  0  0
   -3.1266    0.9109    0.0000 O   0  0  0  0  0  0  0  0  0  0  0  0
   -2.6501    2.8064    0.0000 O   0  0  0  0  0  0  0  0  0  0  0  0
    3.1903   -3.8018    0.0000 O   0  0  0  0  0  0  0  0  0  0  0  0
    3.8256   -0.9425    0.0000 C   0  0  0  0  0  0  0  0  0  0  0  0
    1.4588   -3.7913    0.0000 C   0  0  0  0  0  0  0  0  0  0  0  0
    2.3219   -3.2934    0.0000 C   0  0  0  0  0  0  0  0  0  0  0  0
   -2.6501   -0.7731    0.0000 C   0  0  0  0  0  0  0  0  0  0  0  0
   -3.8256    1.6256    0.0000 C   0  0  0  0  0  0  0  0  0  0  0  0
   -2.4172    3.8018    0.0000 C   0  0  0  0  0  0  0  0  0  0  0  0
    2.6555    1.2656    0.0000 H   0  0  0  0  0  0  0  0  0  0  0  0
    3.4921    0.0846    0.0000 H   0  0  0  0  0  0  0  0  0  0  0  0
  2  1  1  0  0  0  0
  3  1  1  0  0  0  0
  4  3  1  0  0  0  0
  5  2  2  0  0  0  0
  6  4  2  0  0  0  0
  7  1  2  0  0  0  0
  8  3  2  0  0  0  0
  9  5  1  0  0  0  0
 10  2  1  0  0  0  0
 11 15  2  0  0  0  0
 12 13  2  0  0  0  0
 13  7  1  0  0  0  0
 10 14  1  6  0  0  0
 15  8  1  0  0  0  0
 16 14  1  0  0  0  0
 17  8  1  0  0  0  0
 18  9  2  0  0  0  0
 19 10  1  0  0  0  0
 20 16  2  0  0  0  0
 21 12  1  0  0  0  0
 22  4  1  0  0  0  0
 23  6  1  0  0  0  0
 24 11  1  0  0  0  0
 25 28  1  0  0  0  0
 26 16  1  0  0  0  0
 27 21  1  0  0  0  0
 28 27  1  0  0  0  0
 29 22  1  0  0  0  0
 30 23  1  0  0  0  0
 31 24  1  0  0  0  0
 10 32  1  1  0  0  0
 33 14  1  0  0  0  0
  9 12  1  0  0  0  0
 17 19  1  0  0  0  0
  6 11  1  0  0  0  0
M  END
>  <IDNUMBER> (N051-0055)
N051-0055

>  <available> (N051-0055)
346

>  <H_acceptor> (N051-0055)
6

>  <H_donor> (N051-0055)
3

>  <B_rotN> (N051-0055)
9

>  <N_O> (N051-0055)
8

>  <logP> (N051-0055)
1.14

>  <logD> (N051-0055)
-1.21

>  <logSw> (N051-0055)
1.89

>  <PSA> (N051-0055)
106.12

>  <Chiral_centers> (N051-0055)
1

>  <Name> (N051-0055)
N-{14-[(2-HYDROXYETHYL)AMINO]-3,4,5-TRIMETHOXY-13-OXOTRICYCLO[9.5.0.0^(2,7)]HEXADECA-1(16),2,4,6,11,14-HEXAEN-10-YL}ACETAMIDE

>  <Smile> (N051-0055)
COc1c(c(c2c3ccc(c(cc3C(CCc2c1)NC(=O)C)=O)NCCO)OC)OC

>  <Collection> (N051-0055)
DC

>  <InChI Key> (N051-0055)
WMGVUPQJTLLFOE-KRWDZBQOSA-N

>  <PERCENTSP3> (N051-0055)
39.1

$$$$

  -ISIS-  -- StrEd -- 

 31 33  0  0  0  0  0  0  0  0999 V2000
    0.3027   -0.0845    0.0000 C   0  0  0  0  0  0  0  0  0  0  0  0
    1.3346   -0.0845    0.0000 C   0  0  0  0  0  0  0  0  0  0  0  0
   -0.2838    0.7458    0.0000 C   0  0  0  0  0  0  0  0  0  0  0  0
   -1.2596    0.4644    0.0000 C   0  0  0  0  0  0  0  0  0  0  0  0
    1.9678   -0.8725    0.0000 C   0  0  0  0  0  0  0  0  0  0  0  0
   -1.9865    1.1728    0.0000 C   0  0  0  0  0  0  0  0  0  0  0  0
   -0.3260   -0.8725    0.0000 C   0  0  0  0  0  0  0  0  0  0  0  0
   -0.0445    1.7168    0.0000 C   0  0  0  0  0  0  0  0  0  0  0  0
    1.7238   -1.8435    0.0000 C   0  0  0  0  0  0  0  0  0  0  0  0
   -1.7473    2.1249    0.0000 C   0  0  0  0  0  0  0  0  0  0  0  0
    0.7857   -2.2609    0.0000 C   0  0  0  0  0  0  0  0  0  0  0  0
   -0.1009   -1.8576    0.0000 C   0  0  0  0  0  0  0  0  0  0  0  0
   -0.7903    2.4064    0.0000 C   0  0  0  0  0  0  0  0  0  0  0  0
    1.9912    0.7458    0.0000 C   0  0  2  0  0  0  0  0  0  0  0  0
    0.8281    2.1530    0.0000 C   0  0  0  0  0  0  0  0  0  0  0  0
    2.5119   -2.4627    0.0000 O   0  0  0  0  0  0  0  0  0  0  0  0
    1.7427    1.7215    0.0000 C   0  0  0  0  0  0  0  0  0  0  0  0
    0.7669   -3.2648    0.0000 N   0  0  0  0  0  0  0  0  0  0  0  0
   -1.5081   -0.5067    0.0000 O   0  0  0  0  0  0  0  0  0  0  0  0
   -2.9434    0.9146    0.0000 O   0  0  0  0  0  0  0  0  0  0  0  0
    2.6574   -0.0656    0.0000 N   0  0  0  0  0  0  0  0  0  0  0  0
   -2.4556    2.7911    0.0000 O   0  0  0  0  0  0  0  0  0  0  0  0
    3.3328   -3.7714    0.0000 O   0  0  0  0  0  0  0  0  0  0  0  0
    1.6160   -3.7572    0.0000 C   0  0  0  0  0  0  0  0  0  0  0  0
    3.0044   -0.9288    0.0000 C   0  0  0  0  0  0  0  0  0  0  0  0
    2.4744   -3.2741    0.0000 C   0  0  0  0  0  0  0  0  0  0  0  0
   -2.4556   -0.7599    0.0000 C   0  0  0  0  0  0  0  0  0  0  0  0
   -3.6377    1.6230    0.0000 C   0  0  0  0  0  0  0  0  0  0  0  0
   -2.2305    3.7714    0.0000 C   0  0  0  0  0  0  0  0  0  0  0  0
    2.7981    1.2664    0.0000 H   0  0  0  0  0  0  0  0  0  0  0  0
    3.6377    0.0891    0.0000 H   0  0  0  0  0  0  0  0  0  0  0  0
  2  1  1  0  0  0  0
  3  1  1  0  0  0  0
  4  3  1  0  0  0  0
  5  2  2  0  0  0  0
  6  4  2  0  0  0  0
  7  1  2  0  0  0  0
  8  3  2  0  0  0  0
  9  5  1  0  0  0  0
 10 13  2  0  0  0  0
 11 12  2  0  0  0  0
 12  7  1  0  0  0  0
 13  8  1  0  0  0  0
 14  2  1  0  0  0  0
 15  8  1  0  0  0  0
 16  9  2  0  0  0  0
 17 14  1  0  0  0  0
 18 11  1  0  0  0  0
 19  4  1  0  0  0  0
 20  6  1  0  0  0  0
 14 21  1  6  0  0  0
 22 10  1  0  0  0  0
 23 26  1  0  0  0  0
 24 18  1  0  0  0  0
 25 21  1  0  0  0  0
 26 24  1  0  0  0  0
 27 19  1  0  0  0  0
 28 20  1  0  0  0  0
 29 22  1  0  0  0  0
 14 30  1  1  0  0  0
 31 21  1  0  0  0  0
 11  9  1  0  0  0  0
 17 15  1  0  0  0  0
 10  6  1  0  0  0  0
M  END
>  <IDNUMBER> (N051-0056)
N051-0056

>  <available> (N051-0056)
277

>  <H_acceptor> (N051-0056)
6

>  <H_donor> (N051-0056)
3

>  <B_rotN> (N051-0056)
8

>  <N_O> (N051-0056)
7

>  <logP> (N051-0056)
1.88

>  <logD> (N051-0056)
-0.66

>  <logSw> (N051-0056)
1.28

>  <PSA> (N051-0056)
89.05

>  <Chiral_centers> (N051-0056)
1

>  <Name> (N051-0056)
14-[(2-HYDROXYETHYL)AMINO]-3,4,5-TRIMETHOXY-10-(METHYLAMINO)TRICYCLO[9.5.0.0^(2,7)]HEXADECA-1(16),2,4,6,11,14-HEXAEN-13-ONE

>  <Smile> (N051-0056)
COc1c(c(c2c3ccc(c(cc3C(CCc2c1)NC)=O)NCCO)OC)OC

>  <Collection> (N051-0056)
DC

>  <InChI Key> (N051-0056)
KLSCAHCFZYGZPQ-INIZCTEOSA-N

>  <PERCENTSP3> (N051-0056)
40.9

$$$$

  -ISIS-  -- StrEd -- 

 24 26  0  0  0  0  0  0  0  0999 V2000
   -0.2591   -1.0036    0.0000 S   0  0  0  0  0  0  0  0  0  0  0  0
   -0.2591   -0.0024    0.0000 N   0  0  0  0  0  0  0  0  0  0  0  0
    2.7243    0.7370    0.0000 N   0  3  0  0  0  0  0  0  0  0  0  0
    0.7420   -1.0036    0.0000 C   0  0  0  0  0  0  0  0  0  0  0  0
   -1.1295    0.5007    0.0000 C   0  0  0  0  0  0  0  0  0  0  0  0
    1.2351   -0.1384    0.0000 C   0  0  0  0  0  0  0  0  0  0  0  0
    2.2313   -0.1334    0.0000 C   0  0  0  0  0  0  0  0  0  0  0  0
   -0.2643   -1.9997    0.0000 O   0  0  0  0  0  0  0  0  0  0  0  0
   -1.2603   -1.0036    0.0000 O   0  0  0  0  0  0  0  0  0  0  0  0
    3.7204    0.7370    0.0000 O   0  5  0  0  0  0  0  0  0  0  0  0
   -1.9898   -0.0076    0.0000 C   0  0  0  0  0  0  0  0  0  0  0  0
    2.2262    1.5973    0.0000 O   0  0  0  0  0  0  0  0  0  0  0  0
   -2.8553   -1.5118    0.0000 N   0  0  0  0  0  0  0  0  0  0  0  0
    0.6061    0.5007    0.0000 C   0  0  0  0  0  0  0  0  0  0  0  0
   -1.9898   -1.0137    0.0000 C   0  0  0  0  0  0  0  0  0  0  0  0
    1.2402   -1.8689    0.0000 C   0  0  0  0  0  0  0  0  0  0  0  0
   -1.1345    1.5018    0.0000 C   0  0  0  0  0  0  0  0  0  0  0  0
    2.7344   -0.9986    0.0000 C   0  0  0  0  0  0  0  0  0  0  0  0
    2.2363   -1.8640    0.0000 C   0  0  0  0  0  0  0  0  0  0  0  0
   -2.8553    0.4956    0.0000 C   0  0  0  0  0  0  0  0  0  0  0  0
   -3.7204   -1.0137    0.0000 C   0  0  0  0  0  0  0  0  0  0  0  0
    0.6061    1.5018    0.0000 C   0  0  0  0  0  0  0  0  0  0  0  0
   -3.7204   -0.0076    0.0000 C   0  0  0  0  0  0  0  0  0  0  0  0
   -0.2643    1.9997    0.0000 C   0  0  0  0  0  0  0  0  0  0  0  0
  2  1  1  0  0  0  0
  3  7  1  0  0  0  0
  4  1  1  0  0  0  0
  5  2  1  0  0  0  0
  6  4  1  0  0  0  0
  7  6  2  0  0  0  0
  8  1  2  0  0  0  0
  9  1  2  0  0  0  0
 10  3  1  0  0  0  0
 11  5  1  0  0  0  0
 12  3  2  0  0  0  0
 13 15  2  0  0  0  0
 14  2  1  0  0  0  0
 15 11  1  0  0  0  0
 16  4  2  0  0  0  0
 17  5  1  0  0  0  0
 18  7  1  0  0  0  0
 19 16  1  0  0  0  0
 20 11  2  0  0  0  0
 21 23  2  0  0  0  0
 22 14  1  0  0  0  0
 23 20  1  0  0  0  0
 24 22  1  0  0  0  0
 18 19  2  0  0  0  0
 17 24  1  0  0  0  0
 13 21  1  0  0  0  0
M  CHG  2   3   1  10  -1
M  END
>  <IDNUMBER> (N099-0006)
N099-0006

>  <available> (N099-0006)
5

>  <H_acceptor> (N099-0006)
7

>  <H_donor> (N099-0006)
0

>  <B_rotN> (N099-0006)
4

>  <N_O> (N099-0006)
7

>  <logP> (N099-0006)
3.26

>  <logD> (N099-0006)
3.26

>  <logSw> (N099-0006)
-3.8

>  <PSA> (N099-0006)
104.47

>  <Chiral_centers> (N099-0006)
1

>  <Name> (N099-0006)
3-[1-(3-nitrobenzenesulfonyl)piperidin-2-yl]pyridine

>  <Smile> (N099-0006)
S(N1C(c2cnccc2)CCCC1)(c1cc([N+]([O-])=O)ccc1)(=O)=O

>  <Collection> (N099-0006)
DC

>  <InChI Key> (N099-0006)
KYFNDZKGBWQQJH-UHFFFAOYSA-N

>  <PERCENTSP3> (N099-0006)
31.25

$$$$

  -ISIS-  -- StrEd -- 

 31 34  0  0  0  0  0  0  0  0999 V2000
   -6.1102   -0.1685    0.0000 N   0  0  0  0  0  0  0  0  0  0  0  0
    0.8730    1.7435    0.0000 N   0  0  0  0  0  0  0  0  0  0  0  0
   -6.1053    0.8326    0.0000 C   0  0  0  0  0  0  0  0  0  0  0  0
   -0.0478    1.3358    0.0000 C   0  0  0  0  0  0  0  0  0  0  0  0
   -5.2399    1.3307    0.0000 C   0  0  0  0  0  0  0  0  0  0  0  0
    1.5420    0.9937    0.0000 C   0  0  0  0  0  0  0  0  0  0  0  0
    1.0388    0.1286    0.0000 N   0  0  0  0  0  0  0  0  0  0  0  0
   -0.9132    1.8388    0.0000 N   0  0  0  0  0  0  0  0  0  0  0  0
   -3.5143    1.3407    0.0000 N   0  0  0  0  0  0  0  0  0  0  0  0
   -6.9707   -0.6666    0.0000 C   0  0  0  0  0  0  0  0  0  0  0  0
    0.0578    0.3396    0.0000 S   0  0  0  0  0  0  0  0  0  0  0  0
   -1.7837    1.3358    0.0000 C   0  0  0  0  0  0  0  0  0  0  0  0
   -4.3797   -0.1734    0.0000 C   0  0  0  0  0  0  0  0  0  0  0  0
   -5.2448   -0.6715    0.0000 C   0  0  0  0  0  0  0  0  0  0  0  0
   -4.3846    1.8388    0.0000 C   0  0  0  0  0  0  0  0  0  0  0  0
   -4.3797    0.8277    0.0000 C   0  0  0  0  0  0  0  0  0  0  0  0
   -6.9707    1.3407    0.0000 C   0  0  0  0  0  0  0  0  0  0  0  0
   -2.6489    1.8388    0.0000 C   0  0  0  0  0  0  0  0  0  0  0  0
   -7.8361    0.8326    0.0000 C   0  0  0  0  0  0  0  0  0  0  0  0
   -3.5143    0.3296    0.0000 C   0  0  0  0  0  0  0  0  0  0  0  0
   -7.8361   -0.1685    0.0000 C   0  0  0  0  0  0  0  0  0  0  0  0
   -6.9656   -1.6630    0.0000 O   0  0  0  0  0  0  0  0  0  0  0  0
   -1.7837    0.3347    0.0000 O   0  0  0  0  0  0  0  0  0  0  0  0
    2.5333    1.0946    0.0000 S   0  0  0  0  0  0  0  0  0  0  0  0
    3.1171    0.2843    0.0000 C   0  0  0  0  0  0  0  0  0  0  0  0
    4.1078    0.3849    0.0000 C   0  0  0  0  0  0  0  0  0  0  0  0
    7.2526   -1.0336    0.0000 C   0  0  0  0  0  0  0  0  0  0  0  0
    6.2611   -1.1345    0.0000 C   0  0  0  0  0  0  0  0  0  0  0  0
    4.6865   -0.4251    0.0000 C   0  0  0  0  0  0  0  0  0  0  0  0
    5.6775   -0.3245    0.0000 C   0  0  0  0  0  0  0  0  0  0  0  0
    7.8361   -1.8388    0.0000 C   0  0  0  0  0  0  0  0  0  0  0  0
  2  4  2  0  0  0  0
  3  1  1  0  0  0  0
  4  8  1  0  0  0  0
  5  3  1  0  0  0  0
  6  2  1  0  0  0  0
  7 11  1  0  0  0  0
  8 12  1  0  0  0  0
  9 15  1  0  0  0  0
 10  1  1  0  0  0  0
 11  4  1  0  0  0  0
 12 18  1  0  0  0  0
 13 14  1  0  0  0  0
 14  1  1  0  0  0  0
 15  5  1  0  0  0  0
 16  5  1  0  0  0  0
 17  3  2  0  0  0  0
 18  9  1  0  0  0  0
 19 21  2  0  0  0  0
 20 13  1  0  0  0  0
 21 10  1  0  0  0  0
 22 10  2  0  0  0  0
 23 12  2  0  0  0  0
 24  6  1  0  0  0  0
 25 24  1  0  0  0  0
 26 25  1  0  0  0  0
 27 28  1  0  0  0  0
 28 30  1  0  0  0  0
 29 26  1  0  0  0  0
 30 29  1  0  0  0  0
 31 27  1  0  0  0  0
 17 19  1  0  0  0  0
 16 13  1  0  0  0  0
 20  9  1  0  0  0  0
  6  7  2  0  0  0  0
M  END
>  <IDNUMBER> (N099-0010)
N099-0010

>  <available> (N099-0010)
99

>  <H_acceptor> (N099-0010)
7

>  <H_donor> (N099-0010)
1

>  <B_rotN> (N099-0010)
11

>  <N_O> (N099-0010)
7

>  <logP> (N099-0010)
3.73

>  <logD> (N099-0010)
2.12

>  <logSw> (N099-0010)
0.61

>  <PSA> (N099-0010)
131.97

>  <Chiral_centers> (N099-0010)
2

>  <Name> (N099-0010)
N~1~-[3-(heptylsulfanyl)-1,2,4-thiadiazol-5-yl]-2-(6-oxo-7,11-diazatricyclo[7.3.1.0~2,7~]trideca-2,4-dien-11-yl)acetamide

>  <Smile> (N099-0010)
CCCCCCCSC1N=C(NC(CN2CC3C[nH0]4c(cccc4C(C2)C3)=O)=O)SN=1

>  <Collection> (N099-0010)
DC

>  <CLNUMBER> (N099-0010)
CL7743

>  <InChI Key> (N099-0010)
IMUDZFUVAKOPGL-UHFFFAOYSA-N

>  <PERCENTSP3> (N099-0010)
63.6

$$$$

  -ISIS-  -- StrEd -- 

 25 26  0  0  0  0  0  0  0  0999 V2000
   -0.8780    0.7369    0.0000 C   0  0  0  0  0  0  0  0  0  0  0  0
   -1.7497    0.2476    0.0000 C   0  0  0  0  0  0  0  0  0  0  0  0
   -1.7497   -0.7495    0.0000 C   0  0  0  0  0  0  0  0  0  0  0  0
   -2.6277    0.7369    0.0000 C   0  0  0  0  0  0  0  0  0  0  0  0
    0.0000    0.2476    0.0000 O   0  0  0  0  0  0  0  0  0  0  0  0
   -3.4932    0.2476    0.0000 C   0  0  0  0  0  0  0  0  0  0  0  0
   -0.8780    1.7340    0.0000 O   0  0  0  0  0  0  0  0  0  0  0  0
   -2.6277   -1.2511    0.0000 C   0  0  0  0  0  0  0  0  0  0  0  0
   -0.8780   -1.2511    0.0000 C   0  0  0  0  0  0  0  0  0  0  0  0
   -3.4932   -0.7495    0.0000 C   0  0  0  0  0  0  0  0  0  0  0  0
    4.3650   -1.2511    0.0000 O   0  0  0  0  0  0  0  0  0  0  0  0
    3.4869   -0.7495    0.0000 C   0  0  0  0  0  0  0  0  0  0  0  0
    0.0000   -0.7495    0.0000 C   0  0  0  0  0  0  0  0  0  0  0  0
   -2.6277    1.7340    0.0000 O   0  0  0  0  0  0  0  0  0  0  0  0
    0.8718    0.7369    0.0000 C   0  0  2  0  0  0  0  0  0  0  0  0
   -4.3650   -1.2511    0.0000 O   0  0  0  0  0  0  0  0  0  0  0  0
    2.6153    0.7369    0.0000 C   0  0  0  0  0  0  0  0  0  0  0  0
    3.4869    0.2476    0.0000 C   0  0  0  0  0  0  0  0  0  0  0  0
    0.8718   -1.2511    0.0000 C   0  0  0  0  0  0  0  0  0  0  0  0
    2.6153   -1.2511    0.0000 C   0  0  0  0  0  0  0  0  0  0  0  0
    1.7373    0.2476    0.0000 C   0  0  0  0  0  0  0  0  0  0  0  0
   -3.4808    2.2297    0.0000 C   0  0  0  0  0  0  0  0  0  0  0  0
   -4.3650   -2.2297    0.0000 C   0  0  0  0  0  0  0  0  0  0  0  0
    0.8718    1.7152    0.0000 C   0  0  0  0  0  0  0  0  0  0  0  0
    1.7373   -0.7495    0.0000 C   0  0  0  0  0  0  0  0  0  0  0  0
  2  1  1  0  0  0  0
  3  2  2  0  0  0  0
  4  2  1  0  0  0  0
  5  1  1  0  0  0  0
  6  4  2  0  0  0  0
  7  1  2  0  0  0  0
  8  3  1  0  0  0  0
  9  3  1  0  0  0  0
 10  6  1  0  0  0  0
 11 12  2  0  0  0  0
 12 18  1  0  0  0  0
 13  9  2  0  0  0  0
 14  4  1  0  0  0  0
 15  5  1  0  0  0  0
 16 10  1  0  0  0  0
 17 21  1  0  0  0  0
 18 17  1  0  0  0  0
 19 13  1  0  0  0  0
 20 12  1  0  0  0  0
 21 15  1  0  0  0  0
 22 14  1  0  0  0  0
 23 16  1  0  0  0  0
 15 24  1  1  0  0  0
 25 19  1  0  0  0  0
 10  8  2  0  0  0  0
 20 25  1  0  0  0  0
M  END
>  <IDNUMBER> (0833-0158)
0833-0158

>  <available> (0833-0158)
122

>  <H_acceptor> (0833-0158)
5

>  <H_donor> (0833-0158)
0

>  <B_rotN> (0833-0158)
2

>  <N_O> (0833-0158)
5

>  <logP> (0833-0158)
3.75

>  <logD> (0833-0158)
4.05

>  <logSw> (0833-0158)
-3.58

>  <PSA> (0833-0158)
61.83

>  <Chiral_centers> (0833-0158)
1

>  <Name> (0833-0158)
(11E)-14,16-dimethoxy-3-methyl-3,4,5,6,7,8,9,10-octahydro-1H-2-benzoxacyclotetradecine-1,7-dione

>  <Smile> (0833-0158)
C1CC=Cc2c(C(=O)OC(C)CCCC(=O)C1)c(cc(c2)OC)OC

>  <Collection> (0833-0158)
DC

>  <InChI Key> (0833-0158)
MYILAUURZUNHGP-KVEVGEHQSA-N

>  <PERCENTSP3> (0833-0158)
50

$$$$

  -ISIS-  -- StrEd -- 

 30 32  0  0  0  0  0  0  0  0999 V2000
    0.4176   -1.2837    0.0000 C   0  0  0  0  0  0  0  0  0  0  0  0
   -0.2188   -0.4972    0.0000 C   0  0  0  0  0  0  0  0  0  0  0  0
   -1.1512   -0.8772    0.0000 C   0  0  0  0  0  0  0  0  0  0  0  0
   -1.9996   -0.3689    0.0000 C   0  0  0  0  0  0  0  0  0  0  0  0
   -2.1675    0.6076    0.0000 C   0  0  0  0  0  0  0  0  0  0  0  0
   -0.1127   -2.1101    0.0000 C   0  0  0  0  0  0  0  0  0  0  0  0
   -1.0892   -1.8537    0.0000 O   0  0  0  0  0  0  0  0  0  0  0  0
   -2.8922   -0.8374    0.0000 C   0  0  0  0  0  0  0  0  0  0  0  0
   -3.1440    0.7534    0.0000 C   0  0  0  0  0  0  0  0  0  0  0  0
   -1.5135    1.3500    0.0000 C   0  0  0  0  0  0  0  0  0  0  0  0
    0.0773    0.4575    0.0000 C   0  0  0  0  0  0  0  0  0  0  0  0
    1.4164   -1.2483    0.0000 O   0  0  0  0  0  0  0  0  0  0  0  0
   -3.5905   -0.1171    0.0000 C   0  0  0  0  0  0  0  0  0  0  0  0
    1.9773   -2.1499    0.0000 C   0  0  0  0  0  0  0  0  0  0  0  0
    1.4780    1.4958    0.0000 C   0  0  0  0  0  0  0  0  0  0  0  0
    1.0760    0.5635    0.0000 O   0  0  0  0  0  0  0  0  0  0  0  0
   -0.5148    1.2837    0.0000 C   0  0  0  0  0  0  0  0  0  0  0  0
    2.9629   -2.1189    0.0000 C   0  0  0  0  0  0  0  0  0  0  0  0
    0.8860    2.2825    0.0000 C   0  0  0  0  0  0  0  0  0  0  0  0
    0.2718   -3.0646    0.0000 O   0  0  0  0  0  0  0  0  0  0  0  0
   -3.4226    1.6152    0.0000 O   0  0  0  0  0  0  0  0  0  0  0  0
    1.5092   -3.0204    0.0000 O   0  0  0  0  0  0  0  0  0  0  0  0
    2.4769    1.6018    0.0000 O   0  0  0  0  0  0  0  0  0  0  0  0
    1.3854    3.0646    0.0000 C   0  0  0  0  0  0  0  0  0  0  0  0
    3.5905   -2.9142    0.0000 C   0  0  0  0  0  0  0  0  0  0  0  0
    0.9789   -0.4131    0.0000 C   0  0  0  0  0  0  0  0  0  0  0  0
   -3.0602   -1.8537    0.0000 C   0  0  0  0  0  0  0  0  0  0  0  0
   -1.8714    2.3044    0.0000 C   0  0  0  0  0  0  0  0  0  0  0  0
    3.4711   -1.2394    0.0000 C   0  0  0  0  0  0  0  0  0  0  0  0
   -0.1348    2.3974    0.0000 C   0  0  0  0  0  0  0  0  0  0  0  0
  2  1  1  0  0  0  0
  3  2  1  0  0  0  0
  4  3  1  0  0  0  0
  5  4  1  0  0  0  0
  6  1  1  0  0  0  0
  7  6  1  0  0  0  0
  8  4  1  0  0  0  0
  9  5  1  0  0  0  0
 10 17  1  0  0  0  0
 11  2  1  0  0  0  0
  1 12  1  0  0  0  0
 13  8  2  0  0  0  0
 14 12  1  0  0  0  0
 15 16  1  0  0  0  0
 11 16  1  0  0  0  0
 17 11  1  0  0  0  0
 18 14  1  0  0  0  0
 19 15  1  0  0  0  0
 20  6  2  0  0  0  0
 21  9  2  0  0  0  0
 22 14  2  0  0  0  0
 23 15  2  0  0  0  0
 24 19  2  0  0  0  0
 25 18  2  0  0  0  0
 26  1  1  0  0  0  0
 27  8  1  0  0  0  0
 28 10  1  0  0  0  0
 29 18  1  0  0  0  0
 30 19  1  0  0  0  0
  3  7  1  0  0  0  0
  5 10  2  0  0  0  0
 13  9  1  0  0  0  0
M  END
>  <IDNUMBER> (0166-0008)
0166-0008

>  <available> (0166-0008)
1358

>  <H_acceptor> (0166-0008)
7

>  <H_donor> (0166-0008)
0

>  <B_rotN> (0166-0008)
6

>  <N_O> (0166-0008)
7

>  <logP> (0166-0008)
3.64

>  <logD> (0166-0008)
3.03

>  <logSw> (0166-0008)
-4.89

>  <PSA> (0166-0008)
95.97

>  <Chiral_centers> (0166-0008)
5

>  <Name> (0166-0008)
3,6,9-trimethyl-4-[(2-methylprop-2-enoyl)oxy]-2,7-dioxo-2H,3H,3aH,4H,5H,7H,9aH,9bH-azuleno[4,5-b]furan-3-yl 2-methylprop-2-enoate

>  <Smile> (0166-0008)
CC(C(OC1C2C(C)(OC(C(=C)C)=O)C(OC2C2C(=C(C1)C)C(=O)C=C2C)=O)=O)=C

>  <Collection> (0166-0008)
DC

>  <InChI Key> (0166-0008)
ZXRNSWURARYCTJ-UHFFFAOYSA-N

>  <PERCENTSP3> (0166-0008)
47.8

$$$$

  -ISIS-  -- StrEd -- 

 35 39  0  0  0  0  0  0  0  0999 V2000
    1.8318   -0.7953    0.0000 C   0  0  0  0  0  0  0  0  0  0  0  0
   -0.6899   -1.2932    0.0000 C   0  0  0  0  0  0  0  0  0  0  0  0
    1.8318    0.1786    0.0000 C   0  0  0  0  0  0  0  0  0  0  0  0
   -0.6899   -2.2510    0.0000 C   0  0  0  0  0  0  0  0  0  0  0  0
    0.1434   -0.7953    0.0000 C   0  0  2  0  0  0  0  0  0  0  0  0
    0.9875   -1.2932    0.0000 C   0  0  1  0  0  0  0  0  0  0  0  0
    3.0493    1.4610    0.0000 C   0  0  0  0  0  0  0  0  0  0  0  0
    2.7408    0.4382    0.0000 C   0  0  0  0  0  0  0  0  0  0  0  0
    2.4377    2.2782    0.0000 C   0  0  0  0  0  0  0  0  0  0  0  0
    3.0493    3.1765    0.0000 C   0  0  0  0  0  0  0  0  0  0  0  0
    2.7408   -1.0984    0.0000 C   0  0  0  0  0  0  0  0  0  0  0  0
    0.9875    0.6549    0.0000 C   0  0  0  0  0  0  0  0  0  0  0  0
   -1.5718   -2.7056    0.0000 C   0  0  0  0  0  0  0  0  0  0  0  0
   -1.5718   -0.7953    0.0000 C   0  0  0  0  0  0  0  0  0  0  0  0
    0.1434    0.1786    0.0000 C   0  0  0  0  0  0  0  0  0  0  0  0
    4.0773    2.8518    0.0000 O   0  0  0  0  0  0  0  0  0  0  0  0
    3.2820   -0.3193    0.0000 C   0  0  0  0  0  0  0  0  0  0  0  0
    0.9875   -2.2510    0.0000 C   0  0  0  0  0  0  0  0  0  0  0  0
    0.1434   -2.7056    0.0000 C   0  0  0  0  0  0  0  0  0  0  0  0
    4.0773    1.8019    0.0000 C   0  0  0  0  0  0  0  0  0  0  0  0
   -0.6628    0.0217    0.0000 C   0  0  0  0  0  0  0  0  0  0  0  0
   -3.2224   -3.7445    0.0000 C   0  0  0  0  0  0  0  0  0  0  0  0
   -1.5612    0.3842    0.0000 N   0  0  0  0  0  0  0  0  0  0  0  0
   -2.3511   -2.2510    0.0000 C   0  0  0  0  0  0  0  0  0  0  0  0
   -3.2224   -2.7598    0.0000 O   0  0  0  0  0  0  0  0  0  0  0  0
    2.6976    4.2532    0.0000 O   0  0  0  0  0  0  0  0  0  0  0  0
    1.8318   -1.8236    0.0000 O   0  0  0  0  0  0  0  0  0  0  0  0
   -4.0773   -4.2532    0.0000 O   0  0  0  0  0  0  0  0  0  0  0  0
   -0.6899   -3.5227    0.0000 O   0  0  0  0  0  0  0  0  0  0  0  0
   -2.3511   -1.2932    0.0000 C   0  0  0  0  0  0  0  0  0  0  0  0
    1.8318    1.1255    0.0000 C   0  0  0  0  0  0  0  0  0  0  0  0
   -1.5718    1.3690    0.0000 O   0  0  0  0  0  0  0  0  0  0  0  0
   -2.3783   -4.2368    0.0000 C   0  0  0  0  0  0  0  0  0  0  0  0
    0.9875   -0.4329    0.0000 H   0  0  0  0  0  0  0  0  0  0  0  0
    0.1434   -1.7208    0.0000 H   0  0  0  0  0  0  0  0  0  0  0  0
  2  5  1  0  0  0  0
  3  1  1  0  0  0  0
  4 19  1  0  0  0  0
  5  6  1  0  0  0  0
  6  1  1  0  0  0  0
  8  7  1  0  0  0  0
  8  3  1  0  0  0  0
  9  7  2  0  0  0  0
 10  9  1  0  0  0  0
 11  1  1  0  0  0  0
 12  3  1  0  0  0  0
 13  4  1  0  0  0  0
 14  2  1  0  0  0  0
 15  5  1  0  0  0  0
 16 20  1  0  0  0  0
 17 11  1  0  0  0  0
 18  6  1  0  0  0  0
 19 18  1  0  0  0  0
 20  7  1  0  0  0  0
  2 21  1  0  0  0  0
 22 25  1  0  0  0  0
 23 21  2  0  0  0  0
 24 13  1  0  0  0  0
 24 25  1  0  0  0  0
 26 10  2  0  0  0  0
  1 27  1  0  0  0  0
 28 22  2  0  0  0  0
  4 29  1  0  0  0  0
 30 14  1  0  0  0  0
  3 31  1  0  0  0  0
 32 23  1  0  0  0  0
 33 22  1  0  0  0  0
  6 34  1  1  0  0  0
  5 35  1  6  0  0  0
  8 17  1  0  0  0  0
 15 12  1  0  0  0  0
  2  4  1  0  0  0  0
 30 24  1  0  0  0  0
 16 10  1  0  0  0  0
M  END
>  <IDNUMBER> (0449-0079)
0449-0079

>  <available> (0449-0079)
49

>  <H_acceptor> (0449-0079)
8

>  <H_donor> (0449-0079)
3

>  <B_rotN> (0449-0079)
7

>  <N_O> (0449-0079)
8

>  <logP> (0449-0079)
1.51

>  <logD> (0449-0079)
1.67

>  <logSw> (0449-0079)
-1.9

>  <PSA> (0449-0079)
125.65

>  <Chiral_centers> (0449-0079)
8

>  <Name> (0449-0079)
3a,5a-dihydroxy-9a-[(E)-(hydroxyimino)methyl]-11a-methyl-1-(5-oxo-2,5-dihydrofuran-3-yl)-hexadecahydro-1H-cyclopenta[a]phenanthren-7-yl acetate

>  <Smile> (0449-0079)
CC(OC1CC2(C(C3C(C4(O)CCC(C4(C)CC3)C3=CC(=O)OC3)CC2)(CC1)C=NO)O)=O

>  <Collection> (0449-0079)
DC

>  <InChI Key> (0449-0079)
XEZYOTFVCGERLI-FZGQNRROSA-N

>  <PERCENTSP3> (0449-0079)
80

$$$$

  -ISIS-  -- StrEd -- 

 30 33  0  0  0  0  0  0  0  0999 V2000
    0.6721    1.1989    0.0000 C   0  0  0  0  0  0  0  0  0  0  0  0
   -0.1987    0.7078    0.0000 C   0  0  0  0  0  0  0  0  0  0  0  0
    0.6721    2.2081    0.0000 C   0  0  0  0  0  0  0  0  0  0  0  0
    1.3867    0.5023    0.0000 C   0  0  0  0  0  0  0  0  0  0  0  0
    0.0155   -0.3014    0.0000 O   0  0  0  0  0  0  0  0  0  0  0  0
    0.9579   -0.3730    0.0000 C   0  0  0  0  0  0  0  0  0  0  0  0
   -1.0651    1.1989    0.0000 C   0  0  0  0  0  0  0  0  0  0  0  0
   -0.1987    2.6995    0.0000 O   0  0  0  0  0  0  0  0  0  0  0  0
   -1.0651    2.1992    0.0000 C   0  0  0  0  0  0  0  0  0  0  0  0
    2.3957    0.5782    0.0000 C   0  0  0  0  0  0  0  0  0  0  0  0
    2.9765   -0.2478    0.0000 C   0  0  0  0  0  0  0  0  0  0  0  0
    2.5253   -1.1590    0.0000 C   0  0  0  0  0  0  0  0  0  0  0  0
    1.5071   -1.2303    0.0000 C   0  0  0  0  0  0  0  0  0  0  0  0
   -1.9359    2.6995    0.0000 C   0  0  0  0  0  0  0  0  0  0  0  0
    3.9588   -0.1720    0.0000 O   0  0  0  0  0  0  0  0  0  0  0  0
    3.0925   -1.9806    0.0000 O   0  0  0  0  0  0  0  0  0  0  0  0
   -1.9359    0.6988    0.0000 C   0  0  0  0  0  0  0  0  0  0  0  0
    4.3876    0.7167    0.0000 C   0  0  0  0  0  0  0  0  0  0  0  0
    4.1017   -1.9092    0.0000 C   0  0  0  0  0  0  0  0  0  0  0  0
    1.5295    2.7128    0.0000 O   0  0  0  0  0  0  0  0  0  0  0  0
   -4.5394    2.2081    0.0000 C   0  0  0  0  0  0  0  0  0  0  0  0
   -2.8022    2.1992    0.0000 C   0  0  0  0  0  0  0  0  0  0  0  0
   -3.6686    2.6995    0.0000 O   0  0  0  0  0  0  0  0  0  0  0  0
    4.6554   -1.0160    0.0000 O   0  0  0  0  0  0  0  0  0  0  0  0
    3.9052    1.6500    0.0000 O   0  0  0  0  0  0  0  0  0  0  0  0
   -4.5394    1.1812    0.0000 O   0  0  0  0  0  0  0  0  0  0  0  0
   -2.8022    1.1989    0.0000 C   0  0  0  0  0  0  0  0  0  0  0  0
    5.3432    0.7703    0.0000 C   0  0  0  0  0  0  0  0  0  0  0  0
    4.6018   -2.7128    0.0000 C   0  0  0  0  0  0  0  0  0  0  0  0
   -5.3432    2.7128    0.0000 C   0  0  0  0  0  0  0  0  0  0  0  0
  2  1  2  0  0  0  0
  3  1  1  0  0  0  0
  4  1  1  0  0  0  0
  5  2  1  0  0  0  0
  6  4  2  0  0  0  0
  7  2  1  0  0  0  0
  8  3  1  0  0  0  0
  9  8  1  0  0  0  0
 10  4  1  0  0  0  0
 11 10  2  0  0  0  0
 12 11  1  0  0  0  0
 13  6  1  0  0  0  0
 14  9  1  0  0  0  0
 15 11  1  0  0  0  0
 16 12  1  0  0  0  0
 17  7  1  0  0  0  0
 18 15  1  0  0  0  0
 19 16  1  0  0  0  0
 20  3  2  0  0  0  0
 21 23  1  0  0  0  0
 22 14  2  0  0  0  0
 23 22  1  0  0  0  0
 24 19  2  0  0  0  0
 25 18  2  0  0  0  0
 26 21  2  0  0  0  0
 27 17  2  0  0  0  0
 28 18  1  0  0  0  0
 29 19  1  0  0  0  0
 30 21  1  0  0  0  0
  6  5  1  0  0  0  0
 12 13  2  0  0  0  0
  7  9  2  0  0  0  0
 22 27  1  0  0  0  0
M  END
>  <IDNUMBER> (1521-0134)
1521-0134

>  <available> (1521-0134)
96

>  <H_acceptor> (1521-0134)
9

>  <H_donor> (1521-0134)
0

>  <B_rotN> (1521-0134)
6

>  <N_O> (1521-0134)
9

>  <logP> (1521-0134)
2.1

>  <logD> (1521-0134)
2.1

>  <logSw> (1521-0134)
-4.5

>  <PSA> (1521-0134)
118.34

>  <Chiral_centers> (1521-0134)
0

>  <Name> (1521-0134)
3,8-bis(acetyloxy)-6-oxo-6H-[1]benzofuro[3,2-c]chromen-9-yl acetate

>  <Smile> (1521-0134)
c12c(oc3c1cc(c(c3)OC(=O)C)OC(=O)C)c1c(OC2=O)cc(OC(=O)C)cc1

>  <Collection> (1521-0134)
DC

>  <InChI Key> (1521-0134)
XZTLRBKHOHDMTG-UHFFFAOYSA-N

>  <PERCENTSP3> (1521-0134)
14.2857

$$$$

  -ISIS-  -- StrEd -- 

 31 35  0  0  0  0  0  0  0  0999 V2000
    1.0639   -0.1887    0.0000 C   0  0  0  0  0  0  0  0  0  0  0  0
    2.0546    0.1382    0.0000 C   0  0  1  0  0  0  0  0  0  0  0  0
   -1.5818   -1.6976    0.0000 C   0  0  0  0  0  0  0  0  0  0  0  0
   -0.7118   -1.1997    0.0000 C   0  0  0  0  0  0  0  0  0  0  0  0
    0.2038   -1.6976    0.0000 C   0  0  0  0  0  0  0  0  0  0  0  0
    1.0639   -1.1997    0.0000 C   0  0  0  0  0  0  0  0  0  0  0  0
   -0.7118   -0.1887    0.0000 C   0  0  0  0  0  0  0  0  0  0  0  0
   -1.5818   -2.7236    0.0000 C   0  0  0  0  0  0  0  0  0  0  0  0
    3.0204   -0.0176    0.0000 O   0  0  0  0  0  0  0  0  0  0  0  0
    0.1684    0.3344    0.0000 C   0  0  0  0  0  0  0  0  0  0  0  0
    3.6691    0.7772    0.0000 C   0  0  0  0  0  0  0  0  0  0  0  0
   -2.4619   -1.1997    0.0000 C   0  0  0  0  0  0  0  0  0  0  0  0
    1.6774    1.1038    0.0000 C   0  0  0  0  0  0  0  0  0  0  0  0
   -2.4619   -3.2265    0.0000 C   0  0  0  0  0  0  0  0  0  0  0  0
    2.6079   -0.6563    0.0000 C   0  0  0  0  0  0  0  0  0  0  0  0
    3.3221    1.7428    0.0000 O   0  0  0  0  0  0  0  0  0  0  0  0
    2.0295   -1.5014    0.0000 C   0  0  0  0  0  0  0  0  0  0  0  0
    0.2038   -2.7236    0.0000 C   0  0  0  0  0  0  0  0  0  0  0  0
   -3.3572   -1.6976    0.0000 C   0  0  0  0  0  0  0  0  0  0  0  0
   -3.3572   -2.7236    0.0000 C   0  0  0  0  0  0  0  0  0  0  0  0
   -0.7118   -3.2265    0.0000 C   0  0  0  0  0  0  0  0  0  0  0  0
    2.2962    1.8634    0.0000 C   0  0  0  0  0  0  0  0  0  0  0  0
   -1.5918    0.3093    0.0000 O   0  0  0  0  0  0  0  0  0  0  0  0
    0.7017    1.2498    0.0000 O   0  0  0  0  0  0  0  0  0  0  0  0
   -4.2374   -3.2516    0.0000 O   0  0  0  0  0  0  0  0  0  0  0  0
    1.0488    0.5154    0.0000 C   0  0  0  0  0  0  0  0  0  0  0  0
    4.1520    1.5264    0.0000 O   0  0  0  0  0  0  0  0  0  0  0  0
   -1.5818   -0.6816    0.0000 C   0  0  0  0  0  0  0  0  0  0  0  0
    3.9962   -0.0881    0.0000 C   0  0  0  0  0  0  0  0  0  0  0  0
    3.7043    2.4217    0.0000 C   0  0  0  0  0  0  0  0  0  0  0  0
    4.2374    3.2516    0.0000 C   0  0  0  0  0  0  0  0  0  0  0  0
  2  1  1  0  0  0  0
  4  3  1  0  0  0  0
  4  7  1  0  0  0  0
  6  5  1  0  0  0  0
  6  1  1  0  0  0  0
  7 10  1  0  0  0  0
  8  3  1  0  0  0  0
  2  9  1  6  0  0  0
 10  1  1  0  0  0  0
 11  9  1  0  0  0  0
 12  3  1  0  0  0  0
 13  2  1  0  0  0  0
 14  8  2  0  0  0  0
 15  2  1  0  0  0  0
 16 22  1  0  0  0  0
 17  6  1  0  0  0  0
 18  5  1  0  0  0  0
 19 12  2  0  0  0  0
 20 19  1  0  0  0  0
 21 18  1  0  0  0  0
 22 13  1  0  0  0  0
 23  7  2  0  0  0  0
 24 13  2  0  0  0  0
 25 20  2  0  0  0  0
  1 26  1  0  0  0  0
 11 27  1  0  0  0  0
  3 28  1  0  0  0  0
 29 11  1  0  0  0  0
 30 27  1  0  0  0  0
 31 30  1  0  0  0  0
 17 15  1  0  0  0  0
  5  4  1  0  0  0  0
 21  8  1  0  0  0  0
 16 11  1  0  0  0  0
 20 14  1  0  0  0  0
M  END
>  <IDNUMBER> (N056-0017)
N056-0017

>  <available> (N056-0017)
14

>  <H_acceptor> (N056-0017)
6

>  <H_donor> (N056-0017)
0

>  <B_rotN> (N056-0017)
2

>  <N_O> (N056-0017)
6

>  <logP> (N056-0017)
2.62

>  <logD> (N056-0017)
1.97

>  <logSw> (N056-0017)
-6.15

>  <PSA> (N056-0017)
78.9

>  <Chiral_centers> (N056-0017)
7

>  <Name> (N056-0017)
6'-ethoxy-6',9a,11a-trimethyl-2,3,3a,3b,4,5,7,9a,9b,10,11,11a-dodecahydrospiro[cyclopenta[a]phenanthrene-1,2'-[1,5]dioxane]-3',7,10-trione

>  <Smile> (N056-0017)
CCOC1(OC2(C3(C)CC(C4C5(C)C(CCC4C3CC2)=CC(C=C5)=O)=O)C(CO1)=O)C

>  <Collection> (N056-0017)
DC

>  <InChI Key> (N056-0017)
KPMVTEIRVTYPFF-UHGOVRSYSA-N

>  <PERCENTSP3> (N056-0017)
72

$$$$

  -ISIS-  -- StrEd -- 

 32 36  0  0  0  0  0  0  0  0999 V2000
    0.3983   -0.6938    0.0000 C   0  0  0  0  0  0  0  0  0  0  0  0
   -0.4203   -0.2209    0.0000 C   0  0  0  0  0  0  0  0  0  0  0  0
    1.2301   -0.2209    0.0000 C   0  0  1  0  0  0  0  0  0  0  0  0
    0.3983    1.2061    0.0000 C   0  0  0  0  0  0  0  0  0  0  0  0
    0.7354    2.1429    0.0000 C   0  0  3  0  0  0  0  0  0  0  0  0
   -1.2388   -0.6938    0.0000 C   0  0  2  0  0  0  0  0  0  0  0  0
   -0.6742    1.8058    0.0000 C   0  0  0  0  0  0  0  0  0  0  0  0
    1.2301    0.7333    0.0000 C   0  0  1  0  0  0  0  0  0  0  0  0
   -1.2388   -1.6392    0.0000 C   0  0  0  0  0  0  0  0  0  0  0  0
   -2.0399   -2.1210    0.0000 C   0  0  2  0  0  0  0  0  0  0  0  0
   -0.4203    0.7333    0.0000 C   0  0  0  0  0  0  0  0  0  0  0  0
   -1.5322   -2.7731    0.0000 C   0  0  0  0  0  0  0  0  0  0  0  0
    0.3983   -1.6392    0.0000 C   0  0  0  0  0  0  0  0  0  0  0  0
    2.0399   -0.6938    0.0000 C   0  0  0  0  0  0  0  0  0  0  0  0
    2.0399    1.2061    0.0000 C   0  0  0  0  0  0  0  0  0  0  0  0
   -0.4203   -2.1210    0.0000 C   0  0  0  0  0  0  0  0  0  0  0  0
   -2.0706   -3.6050    0.0000 O   0  0  0  0  0  0  0  0  0  0  0  0
    0.9543    2.9396    0.0000 C   0  0  3  0  0  0  0  0  0  0  0  0
    2.8673   -0.2209    0.0000 C   0  0  0  0  0  0  0  0  0  0  0  0
    2.8673    0.7333    0.0000 C   0  0  0  0  0  0  0  0  0  0  0  0
    2.0399   -1.6392    0.0000 O   0  0  0  0  0  0  0  0  0  0  0  0
    2.0399    2.1516    0.0000 O   0  0  0  0  0  0  0  0  0  0  0  0
   -2.0399   -0.2209    0.0000 C   0  0  0  0  0  0  0  0  0  0  0  0
   -0.5254   -2.7731    0.0000 O   0  0  0  0  0  0  0  0  0  0  0  0
   -1.2519    0.1993    0.0000 C   0  0  0  0  0  0  0  0  0  0  0  0
   -2.8673   -1.6392    0.0000 C   0  0  0  0  0  0  0  0  0  0  0  0
   -2.6485   -2.7425    0.0000 C   0  0  0  0  0  0  0  0  0  0  0  0
   -2.8673   -0.6938    0.0000 C   0  0  0  0  0  0  0  0  0  0  0  0
    1.8605    3.0797    0.0000 C   0  0  0  0  0  0  0  0  0  0  0  0
    0.2845    3.6050    0.0000 C   0  0  0  0  0  0  0  0  0  0  0  0
    1.2388    1.5738    0.0000 H   0  0  0  0  0  0  0  0  0  0  0  0
    1.2388   -1.1447    0.0000 H   0  0  0  0  0  0  0  0  0  0  0  0
  2  1  1  0  0  0  0
  3  1  1  0  0  0  0
  4  5  1  0  0  0  0
  5  7  2  0  0  0  0
  6  2  1  0  0  0  0
  7  1  1  0  0  0  0
  8  3  1  0  0  0  0
  9 16  1  0  0  0  0
 10  9  1  0  0  0  0
 11  2  1  0  0  0  0
 10 12  1  6  0  0  0
 13  1  1  0  0  0  0
 14  3  1  0  0  0  0
 15  8  1  0  0  0  0
 16 13  1  0  0  0  0
 17 12  2  0  0  0  0
  5 18  1  4  0  0  0
 19 14  1  0  0  0  0
 20 19  1  0  0  0  0
 21 14  2  0  0  0  0
 22 15  2  0  0  0  0
 23  6  1  0  0  0  0
 24 12  1  0  0  0  0
  6 25  1  1  0  0  0
 26 10  1  0  0  0  0
 10 27  1  1  0  0  0
 28 23  1  0  0  0  0
 18 29  1  0  0  0  0
 30 18  1  0  0  0  0
  8 31  1  6  0  0  0
  3 32  1  6  0  0  0
  4  8  1  0  0  0  0
 11  4  1  0  0  0  0
  9  6  1  0  0  0  0
 15 20  1  0  0  0  0
 26 28  1  0  0  0  0
M  END
>  <IDNUMBER> (N075-0013)
N075-0013

>  <available> (N075-0013)
75

>  <H_acceptor> (N075-0013)
4

>  <H_donor> (N075-0013)
1

>  <B_rotN> (N075-0013)
3

>  <N_O> (N075-0013)
4

>  <logP> (N075-0013)
3.74

>  <logD> (N075-0013)
2.6

>  <logSw> (N075-0013)
-2.66

>  <PSA> (N075-0013)
71.44

>  <Chiral_centers> (N075-0013)
8

>  <Name> (N075-0013)
5,9-DIMETHYL-14,17-DIOXO-20-(PROPAN-2-YL)PENTACYCLO[10.6.2.0^(1,10).0^(4,9).0^(13,18)]ICOS-19-ENE-5-CARBOXYLIC ACID

>  <Smile> (N075-0013)
CC(C1C2C3C(C4(CCC5C(C4C2)(C)CCCC5(C)C(=O)O)C=1)C(CCC3=O)=O)C

>  <Collection> (N075-0013)
DC

>  <InChI Key> (N075-0013)
JPGGQHZUOUAFHK-MSAXRJNTSA-N

>  <PERCENTSP3> (N075-0013)
80.8

$$$$

  -ISIS-  -- StrEd -- 

 34 37  0  0  0  0  0  0  0  0999 V2000
    0.5814   -0.1818    0.0000 C   0  0  0  0  0  0  0  0  0  0  0  0
   -1.2127   -1.2231    0.0000 C   0  0  2  0  0  0  0  0  0  0  0  0
   -2.1075   -1.7457    0.0000 C   0  0  0  0  0  0  0  0  0  0  0  0
    0.5814   -1.2358    0.0000 C   0  0  0  0  0  0  0  0  0  0  0  0
   -0.3094   -1.7457    0.0000 C   0  0  0  0  0  0  0  0  0  0  0  0
   -0.3094    0.3324    0.0000 C   0  0  2  0  0  0  0  0  0  0  0  0
   -2.1075   -2.7913    0.0000 C   0  0  0  0  0  0  0  0  0  0  0  0
   -1.2127   -0.1818    0.0000 C   0  0  0  0  0  0  0  0  0  0  0  0
   -0.3094   -2.7913    0.0000 C   0  0  1  0  0  0  0  0  0  0  0  0
    1.5471    0.1109    0.0000 C   0  0  2  0  0  0  0  0  0  0  0  0
   -1.2127   -3.3098    0.0000 C   0  0  0  0  0  0  0  0  0  0  0  0
    1.5681   -1.5368    0.0000 C   0  0  0  0  0  0  0  0  0  0  0  0
   -3.0108   -1.2231    0.0000 C   0  0  0  0  0  0  0  0  0  0  0  0
    2.1703   -0.6838    0.0000 C   0  0  0  0  0  0  0  0  0  0  0  0
    4.1649    2.5488    0.0000 C   0  0  0  0  0  0  0  0  0  0  0  0
   -3.0108   -3.3098    0.0000 C   0  0  0  0  0  0  0  0  0  0  0  0
    4.4452    3.5439    0.0000 O   0  0  0  0  0  0  0  0  0  0  0  0
    1.8566    1.0934    0.0000 C   0  0  1  0  0  0  0  0  0  0  0  0
    2.8727    1.3151    0.0000 C   0  0  0  0  0  0  0  0  0  0  0  0
   -0.3094    1.3359    0.0000 O   0  0  0  0  0  0  0  0  0  0  0  0
    0.5729   -3.3014    0.0000 O   0  0  0  0  0  0  0  0  0  0  0  0
    3.1822    2.3103    0.0000 C   0  0  0  0  0  0  0  0  0  0  0  0
    0.5938    0.7924    0.0000 C   0  0  0  0  0  0  0  0  0  0  0  0
   -3.9015   -1.7457    0.0000 C   0  0  0  0  0  0  0  0  0  0  0  0
   -3.9015   -2.7913    0.0000 C   0  0  1  0  0  0  0  0  0  0  0  0
   -2.1075   -0.8427    0.0000 C   0  0  0  0  0  0  0  0  0  0  0  0
    4.7963    1.7877    0.0000 O   0  0  0  0  0  0  0  0  0  0  0  0
   -4.7963   -3.3014    0.0000 O   0  0  0  0  0  0  0  0  0  0  0  0
    2.1787    1.7669    0.0000 C   0  0  0  0  0  0  0  0  0  0  0  0
   -0.3011   -0.9513    0.0000 H   0  0  0  0  0  0  0  0  0  0  0  0
   -1.2127   -2.0887    0.0000 H   0  0  0  0  0  0  0  0  0  0  0  0
    2.7306    0.4411    0.0000 H   0  0  0  0  0  0  0  0  0  0  0  0
    1.1041    1.3945    0.0000 H   0  0  0  0  0  0  0  0  0  0  0  0
   -2.1075   -3.5439    0.0000 H   0  0  0  0  0  0  0  0  0  0  0  0
  2  8  1  0  0  0  0
  3  2  1  0  0  0  0
  4  1  1  0  0  0  0
  5  4  1  0  0  0  0
  6  1  1  0  0  0  0
  7  3  1  0  0  0  0
  8  6  1  0  0  0  0
  9  5  1  0  0  0  0
 10  1  1  0  0  0  0
 11  9  1  0  0  0  0
 12  4  1  0  0  0  0
 13  3  1  0  0  0  0
 14 10  1  0  0  0  0
 15 22  1  0  0  0  0
 16  7  1  0  0  0  0
 17 15  2  0  0  0  0
 18 10  1  0  0  0  0
 19 18  1  0  0  0  0
  6 20  1  6  0  0  0
  9 21  1  6  0  0  0
 22 19  1  0  0  0  0
  1 23  1  0  0  0  0
 24 13  1  0  0  0  0
 25 24  1  0  0  0  0
  3 26  1  0  0  0  0
 27 15  1  0  0  0  0
 25 28  1  6  0  0  0
 29 18  1  0  0  0  0
  5 30  1  0  0  0  0
  2 31  1  6  0  0  0
 10 32  1  6  0  0  0
 18 33  1  1  0  0  0
  7 34  1  0  0  0  0
 14 12  1  0  0  0  0
  2  5  1  0  0  0  0
 11  7  1  0  0  0  0
 16 25  1  0  0  0  0
M  END
>  <IDNUMBER> (N084-1019)
N084-1019

>  <available> (N084-1019)
162

>  <H_acceptor> (N084-1019)
5

>  <H_donor> (N084-1019)
4

>  <B_rotN> (N084-1019)
5

>  <N_O> (N084-1019)
5

>  <logP> (N084-1019)
3.9

>  <logD> (N084-1019)
1.1

>  <logSw> (N084-1019)
-1.1

>  <PSA> (N084-1019)
97.99

>  <Chiral_centers> (N084-1019)
11

>  <Name> (N084-1019)
4-{4,7,11-trihydroxy-9a,11a-dimethyl-hexadecahydro-1H-cyclopenta[a]phenanthren-1-yl}pentanoic acid

>  <Smile> (N084-1019)
CC(C1C2(C)C(O)CC3C(C2CC1)C(O)CC1C3(C)CCC(C1)O)CCC(=O)O

>  <Collection> (N084-1019)
DC

>  <InChI Key> (N084-1019)
BHQCQFFYRZLCQQ-YJIYCRMXSA-N

>  <PERCENTSP3> (N084-1019)
95.8

$$$$

  -ISIS-  -- StrEd -- 

 33 38  0  0  0  0  0  0  0  0999 V2000
    0.0231   -0.5095    0.0000 C   0  0  1  0  0  0  0  0  0  0  0  0
    0.4358    0.2777    0.0000 C   0  0  2  0  0  0  0  0  0  0  0  0
   -1.3542    0.7524    0.0000 C   0  0  0  0  0  0  0  0  0  0  0  0
   -1.3542    1.6322    0.0000 C   0  0  0  0  0  0  0  0  0  0  0  0
    0.0541    1.1226    0.0000 C   0  0  0  0  0  0  0  0  0  0  0  0
   -0.7989    1.2734    0.0000 C   0  0  0  0  0  0  0  0  0  0  0  0
   -1.3542   -0.1349    0.0000 C   0  0  0  0  0  0  0  0  0  0  0  0
   -2.2688    0.2429    0.0000 N   0  0  0  0  0  0  0  0  0  0  0  0
    0.4630    1.8751    0.0000 C   0  0  2  0  0  0  0  0  0  0  0  0
   -2.1106   -0.5748    0.0000 C   0  0  2  0  0  0  0  0  0  0  0  0
   -0.1312    2.5004    0.0000 C   0  0  0  0  0  0  0  0  0  0  0  0
    1.2462    1.0533    0.0000 C   0  0  0  0  0  0  0  0  0  0  0  0
   -0.8219   -0.6483    0.0000 C   0  0  0  0  0  0  0  0  0  0  0  0
   -0.9069    2.1299    0.0000 C   0  0  0  0  0  0  0  0  0  0  0  0
   -2.8825   -1.0071    0.0000 C   0  0  0  0  0  0  0  0  0  0  0  0
    1.2462    2.2149    0.0000 C   0  0  2  0  0  0  0  0  0  0  0  0
    1.8520    1.4237    0.0000 O   0  0  0  0  0  0  0  0  0  0  0  0
   -2.1106    1.1962    0.0000 C   0  0  2  0  0  0  0  0  0  0  0  0
    2.8825    0.3936    0.0000 C   0  0  0  0  0  0  0  0  0  0  0  0
   -2.8709   -0.1389    0.0000 C   0  0  0  0  0  0  0  0  0  0  0  0
    0.0192   -1.4546    0.0000 O   0  0  0  0  0  0  0  0  0  0  0  0
    0.8757   -0.4823    0.0000 O   0  0  0  0  0  0  0  0  0  0  0  0
    2.6856   -0.1970    0.0000 O   0  0  0  0  0  0  0  0  0  0  0  0
   -2.8709    0.7524    0.0000 C   0  0  0  0  0  0  0  0  0  0  0  0
   -3.1525    0.2429    0.0000 C   0  0  0  0  0  0  0  0  0  0  0  0
   -2.1185   -1.4586    0.0000 C   0  0  0  0  0  0  0  0  0  0  0  0
    1.9331    2.7782    0.0000 O   0  0  0  0  0  0  0  0  0  0  0  0
   -2.1185    2.0760    0.0000 O   0  0  0  0  0  0  0  0  0  0  0  0
   -2.8939   -1.8944    0.0000 O   0  0  0  0  0  0  0  0  0  0  0  0
    3.5885    0.5942    0.0000 C   0  0  0  0  0  0  0  0  0  0  0  0
    2.7551    2.4696    0.0000 C   0  0  0  0  0  0  0  0  0  0  0  0
   -2.8978   -2.7782    0.0000 C   0  0  0  0  0  0  0  0  0  0  0  0
   -3.5885    1.0187    0.0000 C   0  0  0  0  0  0  0  0  0  0  0  0
  2  1  1  0  0  0  0
  4  3  1  0  0  0  0
  4  1  1  0  0  0  0
  5  2  1  0  0  0  0
  6  3  1  0  0  0  0
  7 13  1  0  0  0  0
  8  4  1  0  0  0  0
  9  5  1  0  0  0  0
 10  7  1  0  0  0  0
 11 16  1  0  0  0  0
 12  2  1  0  0  0  0
 13  1  1  0  0  0  0
 14  6  1  0  0  0  0
 15  8  1  0  0  0  0
 16 12  1  0  0  0  0
  9 17  1  6  0  0  0
 18  3  1  0  0  0  0
 19 17  1  0  0  0  0
 20 10  1  0  0  0  0
  1 21  1  1  0  0  0
  2 22  1  1  0  0  0
 23 19  2  0  0  0  0
 24 18  1  0  0  0  0
 25  8  1  0  0  0  0
 10 26  1  1  0  0  0
 16 27  1  1  0  0  0
 18 28  1  6  0  0  0
 29 26  1  0  0  0  0
 30 19  1  0  0  0  0
 31 27  1  0  0  0  0
 32 29  1  0  0  0  0
 33 25  1  0  0  0  0
  3  7  1  0  0  0  0
 10 15  1  0  0  0  0
  5  6  1  0  0  0  0
 11 14  1  0  0  0  0
 24 20  1  0  0  0  0
  9 11  1  0  0  0  0
M  END
>  <IDNUMBER> (N094-0036)
N094-0036

>  <available> (N094-0036)
368

>  <H_acceptor> (N094-0036)
8

>  <H_donor> (N094-0036)
3

>  <B_rotN> (N094-0036)
9

>  <N_O> (N094-0036)
8

>  <logP> (N094-0036)
-1.1

>  <logD> (N094-0036)
-0.97

>  <logSw> (N094-0036)
-0.83

>  <PSA> (N094-0036)
108.69

>  <Chiral_centers> (N094-0036)
12

>  <Name> (N094-0036)
11-ETHYL-8,9,16-TRIHYDROXY-6-METHOXY-13-(METHOXYMETHYL)-11-AZAHEXACYCLO[7.7.2.1^(2,5).0^(1,10).0^(3,8).0^(13,17)]NONADECAN-4-YL ACETATE

>  <Smile> (N094-0036)
CCN1C2C3(CC4C2(C2C5C3(O)CC(C(C5OC(=O)C)C2)OC)C(CCC4(C1)COC)O)O

>  <Collection> (N094-0036)
NC

>  <InChI Key> (N094-0036)
QAFUNFQLCIKXQS-DSKYASMUSA-N

>  <PERCENTSP3> (N094-0036)
96

$$$$

  -ISIS-  -- StrEd -- 

 35 39  0  0  0  0  0  0  0  0999 V2000
   -0.3750    0.0189    0.0000 C   0  0  0  0  0  0  0  0  0  0  0  0
   -2.0965    0.0436    0.0000 C   0  0  0  0  0  0  0  0  0  0  0  0
   -2.0758    1.0192    0.0000 C   0  0  0  0  0  0  0  0  0  0  0  0
   -1.2379   -0.4649    0.0000 C   0  0  0  0  0  0  0  0  0  0  0  0
    0.4544   -0.4816    0.0000 C   0  0  0  0  0  0  0  0  0  0  0  0
   -2.9219    1.5068    0.0000 C   0  0  0  0  0  0  0  0  0  0  0  0
   -0.3710    1.0065    0.0000 O   0  0  0  0  0  0  0  0  0  0  0  0
   -1.2212    1.5068    0.0000 C   0  0  0  0  0  0  0  0  0  0  0  0
   -2.9219    2.4822    0.0000 C   0  0  0  0  0  0  0  0  0  0  0  0
    1.2879   -1.9652    0.0000 O   0  0  0  0  0  0  0  0  0  0  0  0
    0.4418   -1.4567    0.0000 C   0  0  0  0  0  0  0  0  0  0  0  0
    2.1425   -1.4819    0.0000 C   0  0  0  0  0  0  0  0  0  0  0  0
    2.1425   -0.5067    0.0000 C   0  0  0  0  0  0  0  0  0  0  0  0
   -3.7721    1.0192    0.0000 C   0  0  0  0  0  0  0  0  0  0  0  0
    2.9802   -1.9819    0.0000 C   0  0  0  0  0  0  0  0  0  0  0  0
   -2.0758    2.9822    0.0000 O   0  0  0  0  0  0  0  0  0  0  0  0
   -3.7721    2.9700    0.0000 C   0  0  0  0  0  0  0  0  0  0  0  0
   -1.2505   -1.4525    0.0000 C   0  0  0  0  0  0  0  0  0  0  0  0
   -4.6142    1.5068    0.0000 C   0  0  0  0  0  0  0  0  0  0  0  0
   -4.6142    2.4822    0.0000 C   0  0  0  0  0  0  0  0  0  0  0  0
   -1.2212    2.4822    0.0000 C   0  0  0  0  0  0  0  0  0  0  0  0
   -2.9386   -0.4440    0.0000 O   0  0  0  0  0  0  0  0  0  0  0  0
    5.5687   -1.4819    0.0000 C   0  0  0  0  0  0  0  0  0  0  0  0
   -0.4002   -1.9530    0.0000 C   0  0  0  0  0  0  0  0  0  0  0  0
    3.8555   -1.4943    0.0000 C   0  0  0  0  0  0  0  0  0  0  0  0
    4.7141   -1.9946    0.0000 O   0  0  0  0  0  0  0  0  0  0  0  0
    2.9678   -2.9822    0.0000 C   0  0  0  0  0  0  0  0  0  0  0  0
    5.5687   -0.4898    0.0000 O   0  0  0  0  0  0  0  0  0  0  0  0
   -5.4604    1.0192    0.0000 O   0  0  0  0  0  0  0  0  0  0  0  0
   -5.4604    2.9700    0.0000 O   0  0  0  0  0  0  0  0  0  0  0  0
    6.4315   -1.9819    0.0000 C   0  0  0  0  0  0  0  0  0  0  0  0
   -6.4191    2.9700    0.0000 C   0  0  0  0  0  0  0  0  0  0  0  0
   -6.4315    1.0192    0.0000 C   0  0  0  0  0  0  0  0  0  0  0  0
   -0.3710    1.9946    0.0000 H   0  0  0  0  0  0  0  0  0  0  0  0
   -2.9219    0.5354    0.0000 H   0  0  0  0  0  0  0  0  0  0  0  0
  2  4  1  0  0  0  0
  3  8  1  0  0  0  0
  4  1  2  0  0  0  0
  5  1  1  0  0  0  0
  6  3  1  0  0  0  0
  7  1  1  0  0  0  0
  8  7  1  0  0  0  0
  9 16  1  0  0  0  0
 10 11  1  0  0  0  0
 11  5  2  0  0  0  0
 12 13  1  0  0  0  0
 13  5  1  0  0  0  0
 14  6  2  0  0  0  0
 12 15  1  0  0  0  0
 16 21  1  0  0  0  0
 17  9  2  0  0  0  0
 18  4  1  0  0  0  0
 19 14  1  0  0  0  0
 20 17  1  0  0  0  0
 21  8  1  0  0  0  0
 22  2  2  0  0  0  0
 23 26  1  0  0  0  0
 24 11  1  0  0  0  0
 25 15  1  0  0  0  0
 26 25  1  0  0  0  0
 27 15  2  0  0  0  0
 28 23  2  0  0  0  0
 29 19  1  0  0  0  0
 30 20  1  0  0  0  0
 31 23  1  0  0  0  0
 32 30  1  0  0  0  0
 33 29  1  0  0  0  0
  8 34  1  0  0  0  0
  3 35  1  0  0  0  0
  3  2  1  0  0  0  0
 12 10  1  0  0  0  0
 24 18  2  0  0  0  0
  6  9  1  0  0  0  0
 19 20  2  0  0  0  0
M  END
>  <IDNUMBER> (N105-0095)
N105-0095

>  <available> (N105-0095)
3

>  <H_acceptor> (N105-0095)
8

>  <H_donor> (N105-0095)
0

>  <B_rotN> (N105-0095)
6

>  <N_O> (N105-0095)
8

>  <logP> (N105-0095)
3.22

>  <logD> (N105-0095)
3.06

>  <logSw> (N105-0095)
-4.55

>  <PSA> (N105-0095)
89.52

>  <Chiral_centers> (N105-0095)
3

>  <Name> (N105-0095)
2-{16,17-DIMETHOXY-12-OXO-2,7,20-TRIOXAPENTACYCLO[11.8.0.0^(3,11).0^(4,8).0^(14,19)]HENICOSA-3(11),4(8),9,14,16,18-HEXAEN-6-YL}PROP-2-EN-1-YL ACETATE

>  <Smile> (N105-0095)
COc1cc2C3C(=O)c4c(OC3COc2cc1OC)c1c(OC(C(COC(=O)C)=C)C1)cc4

>  <Collection> (N105-0095)
DC

>  <InChI Key> (N105-0095)
PFNURIKAZGDCKX-UHFFFAOYSA-N

>  <PERCENTSP3> (N105-0095)
36

$$$$

  -ISIS-  -- StrEd -- 

 56 64  0  0  0  0  0  0  0  0999 V2000
   -3.0949   -2.6437    0.0000 N   0  3  0  0  0  0  0  0  0  0  0  0
   -5.5350   -2.6437    0.0000 C   0  0  0  0  0  0  0  0  0  0  0  0
   -5.0500   -3.5826    0.0000 C   0  0  0  0  0  0  0  0  0  0  0  0
   -6.1693   -4.0777    0.0000 O   0  0  0  0  0  0  0  0  0  0  0  0
   -3.5642   -3.5826    0.0000 C   0  0  0  0  0  0  0  0  0  0  0  0
   -4.2968   -2.0144    0.0000 C   0  0  0  0  0  0  0  0  0  0  0  0
    4.4307   -1.7150    0.0000 C   0  0  0  0  0  0  0  0  0  0  0  0
    2.1406   -2.1484    0.0000 C   0  0  0  0  0  0  0  0  0  0  0  0
    4.4307   -0.8382    0.0000 C   0  0  0  0  0  0  0  0  0  0  0  0
    2.1406   -3.0254    0.0000 C   0  0  0  0  0  0  0  0  0  0  0  0
    2.9195   -1.7150    0.0000 C   0  0  2  0  0  0  0  0  0  0  0  0
    3.6366   -2.1484    0.0000 C   0  0  1  0  0  0  0  0  0  0  0  0
    5.5348    0.2552    0.0000 C   0  0  0  0  0  0  0  0  0  0  0  0
   -3.6160    1.2303    0.0000 C   0  0  0  0  0  0  0  0  0  0  0  0
    5.2613   -0.5905    0.0000 C   0  0  0  0  0  0  0  0  0  0  0  0
   -4.5805    1.3696    0.0000 C   0  0  0  0  0  0  0  0  0  0  0  0
    4.9879    0.9102    0.0000 C   0  0  0  0  0  0  0  0  0  0  0  0
   -1.8930   -3.4844    0.0000 C   0  0  0  0  0  0  0  0  0  0  0  0
    5.4937    1.6634    0.0000 C   0  0  0  0  0  0  0  0  0  0  0  0
   -3.5642   -1.3698    0.0000 C   0  0  0  0  0  0  0  0  0  0  0  0
   -4.2968   -0.4669    0.0000 C   0  0  0  0  0  0  0  0  0  0  0  0
    5.2613   -1.9629    0.0000 C   0  0  0  0  0  0  0  0  0  0  0  0
    3.6366   -0.4151    0.0000 C   0  0  0  0  0  0  0  0  0  0  0  0
   -0.9904   -2.9893    0.0000 C   0  0  0  0  0  0  0  0  0  0  0  0
   -3.8737   -0.4669    0.0000 C   0  0  0  0  0  0  0  0  0  0  0  0
    1.3618   -3.4483    0.0000 C   0  0  0  0  0  0  0  0  0  0  0  0
   -3.2445    0.3173    0.0000 O   0  0  0  0  0  0  0  0  0  0  0  0
    1.3618   -1.7150    0.0000 C   0  0  0  0  0  0  0  0  0  0  0  0
    2.9195   -0.8382    0.0000 C   0  0  0  0  0  0  0  0  0  0  0  0
    6.3239    1.4057    0.0000 O   0  0  0  0  0  0  0  0  0  0  0  0
    5.7409   -1.2715    0.0000 C   0  0  0  0  0  0  0  0  0  0  0  0
    3.6366   -3.0254    0.0000 C   0  0  0  0  0  0  0  0  0  0  0  0
    2.9195   -3.4483    0.0000 C   0  0  0  0  0  0  0  0  0  0  0  0
    6.3497    0.5389    0.0000 C   0  0  0  0  0  0  0  0  0  0  0  0
    2.1406   -1.2715    0.0000 C   0  0  0  0  0  0  0  0  0  0  0  0
   -2.9969    2.0091    0.0000 O   0  0  0  0  0  0  0  0  0  0  0  0
   -0.1393   -3.4741    0.0000 O   0  0  0  0  0  0  0  0  0  0  0  0
    0.6550   -3.0254    0.0000 C   0  0  0  0  0  0  0  0  0  0  0  0
   -4.9673    2.2978    0.0000 C   0  0  0  0  0  0  0  0  0  0  0  0
   -0.9904   -2.0144    0.0000 O   0  0  0  0  0  0  0  0  0  0  0  0
    5.1842    2.4941    0.0000 O   0  0  0  0  0  0  0  0  0  0  0  0
   -2.0787   -1.9523    0.0000 C   0  0  0  0  0  0  0  0  0  0  0  0
    4.4307   -2.7778    0.0000 O   0  0  0  0  0  0  0  0  0  0  0  0
    2.1406   -4.1652    0.0000 O   0  0  0  0  0  0  0  0  0  0  0  0
    1.3618   -0.8382    0.0000 O   0  0  0  0  0  0  0  0  0  0  0  0
    0.6550   -2.1484    0.0000 C   0  0  0  0  0  0  0  0  0  0  0  0
    4.4307    0.2758    0.0000 C   0  0  0  0  0  0  0  0  0  0  0  0
   -5.1891    0.6112    0.0000 C   0  0  0  0  0  0  0  0  0  0  0  0
   -6.1693    0.7350    0.0000 O   0  0  0  0  0  0  0  0  0  0  0  0
   -4.3484    3.1026    0.0000 C   0  0  0  0  0  0  0  0  0  0  0  0
   -5.9681    2.4218    0.0000 C   0  0  0  0  0  0  0  0  0  0  0  0
   -6.3497    3.3606    0.0000 C   0  0  0  0  0  0  0  0  0  0  0  0
   -4.7198    4.0416    0.0000 C   0  0  0  0  0  0  0  0  0  0  0  0
   -5.7205    4.1652    0.0000 C   0  0  0  0  0  0  0  0  0  0  0  0
    3.6366   -1.3698    0.0000 H   0  0  0  0  0  0  0  0  0  0  0  0
    2.9195   -2.5456    0.0000 H   0  0  0  0  0  0  0  0  0  0  0  0
  6  2  1  0  0  0  0
  5  3  1  0  0  0  0
  4  2  1  0  0  0  0
  5  1  1  0  0  0  0
  6  1  1  0  0  0  0
  7 12  1  0  0  0  0
  8 28  1  0  0  0  0
  9 23  1  0  0  0  0
 10 26  1  0  0  0  0
 11  8  1  0  0  0  0
 12 11  1  0  0  0  0
 15 13  1  0  0  0  0
 14 27  1  0  0  0  0
 15  9  1  0  0  0  0
 16 14  1  0  0  0  0
 17 13  2  0  0  0  0
 18  1  1  0  0  0  0
 19 17  1  0  0  0  0
 20  5  1  0  0  0  0
 21  6  1  0  0  0  0
 22  7  1  0  0  0  0
 23 29  1  0  0  0  0
 24 18  1  0  0  0  0
 25 21  1  0  0  0  0
 26 38  1  0  0  0  0
 25 27  1  0  0  0  0
 28 46  1  0  0  0  0
 29 11  1  0  0  0  0
 30 34  1  0  0  0  0
 31 22  1  0  0  0  0
 32 33  1  0  0  0  0
 33 10  1  0  0  0  0
 34 13  1  0  0  0  0
  8 35  1  0  0  0  0
 36 14  2  0  0  0  0
 37 24  1  0  0  0  0
 38 37  1  0  0  0  0
 39 16  1  0  0  0  0
 40 24  2  0  0  0  0
 41 19  2  0  0  0  0
 42  1  1  0  0  0  0
  7 43  1  0  0  0  0
 10 44  1  0  0  0  0
 45 35  2  0  0  0  0
 46 38  1  0  0  0  0
  9 47  1  0  0  0  0
 48 16  1  0  0  0  0
 49 48  1  0  0  0  0
 50 39  2  0  0  0  0
 51 39  1  0  0  0  0
 52 51  2  0  0  0  0
 53 50  1  0  0  0  0
 54 52  1  0  0  0  0
 12 55  1  1  0  0  0
 11 56  1  6  0  0  0
  3  2  1  0  0  0  0
 25 20  1  0  0  0  0
  4  3  1  0  0  0  0
 10  8  1  0  0  0  0
 32 12  1  0  0  0  0
 53 54  2  0  0  0  0
  9  7  1  0  0  0  0
 15 31  1  0  0  0  0
 30 19  1  0  0  0  0
M  CHG  1   1   1
M  END
>  <IDNUMBER> (0449-0065)
0449-0065

>  <available> (0449-0065)
48

>  <Saltdata> (0449-0065)
Br-

>  <H_acceptor> (0449-0065)
11

>  <H_donor> (0449-0065)
3

>  <B_rotN> (0449-0065)
14

>  <N_O> (0449-0065)
12

>  <logP> (0449-0065)
0.77

>  <logD> (0449-0065)
3.37

>  <logSw> (0449-0065)
-7.96

>  <PSA> (0449-0065)
169.19

>  <Chiral_centers> (0449-0065)
13

>  <Name> (0449-0065)
9-(2-{[(8R,9S)-10-formyl-5,14-dihydroxy-13-methyl-17-(5-oxo-2,5-dihydro-3-furanyl)hexadecahydro-1H-cyclopenta[a]phenanthren-3-yl]oxy}-2-oxoethyl)-7-[(3-hydroxy-2-phenylpropanoyl)oxy]-9-methyl-3-oxa-9-
azoniatricyclo[3.3.1.0~2,4~]nonane

>  <Smile> (0449-0065)
c1ccc(C(C(OC2CC3[N+](C)(CC(OC4CC5(C(CC4)(C=O)C4C(C6(O)CCC(C6(CC4)C)C4=CC(=O)OC4)CC5)O)=O)C(C4OC34)C2)=O)CO)cc1

>  <Collection> (0449-0065)
DC

>  <InChI Key> (0449-0065)
DJYVEVBPIZVYGH-VSYARRLDSA-N

>  <PERCENTSP3> (0449-0065)
71.4

$$$$

  -ISIS-  -- StrEd -- 

 23 24  0  0  0  0  0  0  0  0999 V2000
    0.0083   -0.0041    0.0000 C   0  0  0  0  0  0  0  0  0  0  0  0
    0.8702    0.5039    0.0000 C   0  0  0  0  0  0  0  0  0  0  0  0
   -0.8536    0.5039    0.0000 C   0  0  0  0  0  0  0  0  0  0  0  0
    1.7447   -0.0041    0.0000 O   0  0  0  0  0  0  0  0  0  0  0  0
    0.8786    1.5031    0.0000 C   0  0  0  0  0  0  0  0  0  0  0  0
   -0.8536    1.5031    0.0000 C   0  0  0  0  0  0  0  0  0  0  0  0
    2.6066    0.5039    0.0000 C   0  0  0  0  0  0  0  0  0  0  0  0
    0.0166   -1.0035    0.0000 O   0  0  0  0  0  0  0  0  0  0  0  0
    1.7447    2.0029    0.0000 C   0  0  0  0  0  0  0  0  0  0  0  0
    0.0083    2.0029    0.0000 C   0  0  0  0  0  0  0  0  0  0  0  0
    2.6066    1.5031    0.0000 C   0  0  0  0  0  0  0  0  0  0  0  0
    0.8786   -1.5031    0.0000 C   0  0  0  0  0  0  0  0  0  0  0  0
    3.4686   -0.0041    0.0000 O   0  0  0  0  0  0  0  0  0  0  0  0
    0.8786   -2.5025    0.0000 O   0  0  0  0  0  0  0  0  0  0  0  0
   -2.6025   -2.5025    0.0000 C   0  0  0  0  0  0  0  0  0  0  0  0
   -2.5941   -1.5031    0.0000 C   0  0  0  0  0  0  0  0  0  0  0  0
   -1.7280   -0.0041    0.0000 O   0  0  0  0  0  0  0  0  0  0  0  0
   -1.7155    2.0029    0.0000 O   0  0  0  0  0  0  0  0  0  0  0  0
   -1.7280   -1.0035    0.0000 C   0  0  0  0  0  0  0  0  0  0  0  0
    1.7447   -1.0035    0.0000 C   0  0  0  0  0  0  0  0  0  0  0  0
   -3.4686   -2.9938    0.0000 C   0  0  0  0  0  0  0  0  0  0  0  0
   -1.7405   -3.0022    0.0000 C   0  0  0  0  0  0  0  0  0  0  0  0
   -1.7280    3.0022    0.0000 C   0  0  0  0  0  0  0  0  0  0  0  0
  2  1  2  0  0  0  0
  3  1  1  0  0  0  0
  4  2  1  0  0  0  0
  5  2  1  0  0  0  0
  6  3  2  0  0  0  0
  7  4  1  0  0  0  0
  8  1  1  0  0  0  0
  9  5  1  0  0  0  0
 10  6  1  0  0  0  0
 11  9  2  0  0  0  0
 12  8  1  0  0  0  0
 13  7  2  0  0  0  0
 14 12  2  0  0  0  0
 15 16  2  0  0  0  0
 16 19  1  0  0  0  0
 17  3  1  0  0  0  0
 18  6  1  0  0  0  0
 19 17  1  0  0  0  0
 20 12  1  0  0  0  0
 21 15  1  0  0  0  0
 22 15  1  0  0  0  0
 23 18  1  0  0  0  0
 10  5  2  0  0  0  0
 11  7  1  0  0  0  0
M  END
>  <IDNUMBER> (N105-0116)
N105-0116

>  <available> (N105-0116)
56

>  <H_acceptor> (N105-0116)
6

>  <H_donor> (N105-0116)
0

>  <B_rotN> (N105-0116)
6

>  <N_O> (N105-0116)
6

>  <logP> (N105-0116)
2.99

>  <logD> (N105-0116)
2.32

>  <logSw> (N105-0116)
-3.9

>  <PSA> (N105-0116)
71.06

>  <Chiral_centers> (N105-0116)
0

>  <Name> (N105-0116)
6-methoxy-7-[(3-methylbut-2-en-1-yl)oxy]-2-oxo-2H-chromen-8-yl acetate

>  <Smile> (N105-0116)
COc1c(c(OC(=O)C)c2OC(C=Cc2c1)=O)OCC=C(C)C

>  <Collection> (N105-0116)
DC

>  <CLNUMBER> (N105-0116)
CV0119

>  <InChI Key> (N105-0116)
HLWOANLPPGWSTM-UHFFFAOYSA-N

>  <PERCENTSP3> (N105-0116)
29.4

$$$$

  -ISIS-  -- StrEd -- 

 18 20  0  0  0  0  0  0  0  0999 V2000
   -1.3652   -0.7931    0.0000 O   0  0  0  0  0  0  0  0  0  0  0  0
   -0.4232   -0.4842    0.0000 C   0  0  0  0  0  0  0  0  0  0  0  0
    1.3174   -0.4842    0.0000 C   0  0  0  0  0  0  0  0  0  0  0  0
    2.1848   -0.9687    0.0000 O   0  0  0  0  0  0  0  0  0  0  0  0
   -0.4232    0.5375    0.0000 C   0  0  0  0  0  0  0  0  0  0  0  0
   -1.9295   -0.0001    0.0000 C   0  0  1  0  0  0  0  0  0  0  0  0
    0.4498   -0.9687    0.0000 C   0  0  0  0  0  0  0  0  0  0  0  0
    1.3174    0.5110    0.0000 C   0  0  0  0  0  0  0  0  0  0  0  0
    3.0525   -0.4842    0.0000 C   0  0  0  0  0  0  0  0  0  0  0  0
    2.1848    1.0220    0.0000 C   0  0  0  0  0  0  0  0  0  0  0  0
   -1.3652    0.8462    0.0000 C   0  0  0  0  0  0  0  0  0  0  0  0
    0.4498    1.0220    0.0000 C   0  0  0  0  0  0  0  0  0  0  0  0
    3.0525    0.5375    0.0000 C   0  0  0  0  0  0  0  0  0  0  0  0
   -2.9248   -0.0001    0.0000 C   0  0  0  0  0  0  0  0  0  0  0  0
    3.9200   -1.0220    0.0000 O   0  0  0  0  0  0  0  0  0  0  0  0
   -2.8981   -0.9953    0.0000 O   0  0  0  0  0  0  0  0  0  0  0  0
   -3.9200   -0.0267    0.0000 C   0  0  0  0  0  0  0  0  0  0  0  0
   -2.9248    0.9954    0.0000 C   0  0  0  0  0  0  0  0  0  0  0  0
  2  1  1  0  0  0  0
  3  7  1  0  0  0  0
  4  3  1  0  0  0  0
  5  2  1  0  0  0  0
  6  1  1  0  0  0  0
  7  2  2  0  0  0  0
  8  3  2  0  0  0  0
  9  4  1  0  0  0  0
 10  8  1  0  0  0  0
 11  6  1  0  0  0  0
 12  5  2  0  0  0  0
 13 10  2  0  0  0  0
  6 14  1  6  0  0  0
 15  9  2  0  0  0  0
 14 16  1  0  0  0  0
 17 14  1  0  0  0  0
 18 14  1  0  0  0  0
 11  5  1  0  0  0  0
 12  8  1  0  0  0  0
 13  9  1  0  0  0  0
M  END
>  <IDNUMBER> (0080-0004)
0080-0004

>  <available> (0080-0004)
227

>  <H_acceptor> (0080-0004)
4

>  <H_donor> (0080-0004)
1

>  <B_rotN> (0080-0004)
2

>  <N_O> (0080-0004)
4

>  <logP> (0080-0004)
2.21

>  <logD> (0080-0004)
2.08

>  <logSw> (0080-0004)
-3.05

>  <PSA> (0080-0004)
55.76

>  <Chiral_centers> (0080-0004)
1

>  <Name> (0080-0004)
2-(2-hydroxypropan-2-yl)-2H,3H,7H-furo[3,2-g]chromen-7-one

>  <Smile> (0080-0004)
CC(C1Oc2c(C1)cc1c(c2)OC(C=C1)=O)(C)O

>  <Collection> (0080-0004)
DC

>  <InChI Key> (0080-0004)
FWYSBEAFFPBAQU-LBPRGKRZSA-N

>  <PERCENTSP3> (0080-0004)
35.7

$$$$

  -ISIS-  -- StrEd -- 

 25 28  0  0  0  0  0  0  0  0999 V2000
   -0.5377   -0.0756    0.0000 C   0  0  0  0  0  0  0  0  0  0  0  0
    0.0725    1.3744    0.0000 C   0  0  0  0  0  0  0  0  0  0  0  0
   -0.7672    0.8851    0.0000 C   0  0  0  0  0  0  0  0  0  0  0  0
    0.8278    0.7099    0.0000 C   0  0  0  0  0  0  0  0  0  0  0  0
    1.7520    1.0301    0.0000 N   0  0  0  0  0  0  0  0  0  0  0  0
    0.0725    2.3894    0.0000 C   0  0  0  0  0  0  0  0  0  0  0  0
    0.4229   -0.1901    0.0000 C   0  0  0  0  0  0  0  0  0  0  0  0
   -1.6371    1.3744    0.0000 C   0  0  0  0  0  0  0  0  0  0  0  0
    2.3924    0.2750    0.0000 C   0  0  0  0  0  0  0  0  0  0  0  0
    0.1028   -0.8005    0.0000 C   0  0  0  0  0  0  0  0  0  0  0  0
   -1.5224   -0.2748    0.0000 C   0  0  0  0  0  0  0  0  0  0  0  0
   -1.6371    2.3894    0.0000 C   0  0  0  0  0  0  0  0  0  0  0  0
    1.7822    2.3894    0.0000 C   0  0  0  0  0  0  0  0  0  0  0  0
   -0.7672    2.8848    0.0000 C   0  0  0  0  0  0  0  0  0  0  0  0
   -0.1872   -1.7005    0.0000 C   0  0  0  0  0  0  0  0  0  0  0  0
   -1.8124   -1.2051    0.0000 C   0  0  0  0  0  0  0  0  0  0  0  0
   -1.1479   -1.9301    0.0000 C   0  0  0  0  0  0  0  0  0  0  0  0
    0.9123    2.8848    0.0000 C   0  0  0  0  0  0  0  0  0  0  0  0
    2.0420   -0.6555    0.0000 O   0  0  0  0  0  0  0  0  0  0  0  0
   -1.4378   -2.8848    0.0000 O   0  0  0  0  0  0  0  0  0  0  0  0
   -2.5071    0.8851    0.0000 O   0  0  0  0  0  0  0  0  0  0  0  0
   -2.5071    2.8848    0.0000 O   0  0  0  0  0  0  0  0  0  0  0  0
    3.3469    0.4502    0.0000 C   0  0  0  0  0  0  0  0  0  0  0  0
   -3.3469    1.3744    0.0000 C   0  0  0  0  0  0  0  0  0  0  0  0
   -3.3469    2.3894    0.0000 C   0  0  0  0  0  0  0  0  0  0  0  0
  2  3  1  0  0  0  0
  3  1  1  0  0  0  0
  4  7  1  0  0  0  0
  5  4  1  0  0  0  0
  6  2  2  0  0  0  0
  1  7  1  0  0  0  0
  8  3  2  0  0  0  0
  9  5  1  0  0  0  0
 10  1  1  0  0  0  0
 11  1  1  0  0  0  0
 12  8  1  0  0  0  0
 13  5  1  0  0  0  0
 14 12  2  0  0  0  0
 15 10  2  0  0  0  0
 16 11  2  0  0  0  0
 17 16  1  0  0  0  0
 18  6  1  0  0  0  0
 19  9  2  0  0  0  0
 20 17  2  0  0  0  0
 21  8  1  0  0  0  0
 22 12  1  0  0  0  0
 23  9  1  0  0  0  0
 24 21  1  0  0  0  0
 25 22  1  0  0  0  0
  2  4  1  0  0  0  0
 15 17  1  0  0  0  0
 14  6  1  0  0  0  0
 18 13  1  0  0  0  0
M  END
>  <IDNUMBER> (0080-0031)
0080-0031

>  <available> (0080-0031)
375

>  <H_acceptor> (0080-0031)
4

>  <H_donor> (0080-0031)
0

>  <B_rotN> (0080-0031)
3

>  <N_O> (0080-0031)
5

>  <logP> (0080-0031)
1.4

>  <logD> (0080-0031)
1.98

>  <logSw> (0080-0031)
-3.56

>  <PSA> (0080-0031)
55.84

>  <Chiral_centers> (0080-0031)
1

>  <Name> (0080-0031)
1'-acetyl-5',6'-dimethoxy-2',3',8',8a'-tetrahydro-1'H,4H-spiro[cyclohexa-2,5-diene-1,7'-cyclopenta[ij]isoquinolin]-4-one

>  <Smile> (0080-0031)
COc1c(c2C3(C=CC(C=C3)=O)CC3c2c(CCN3C(=O)C)c1)OC

>  <Collection> (0080-0031)
DC

>  <InChI Key> (0080-0031)
QHDTTYCECGBECX-UHFFFAOYSA-N

>  <PERCENTSP3> (0080-0031)
40

$$$$

  -ISIS-  -- StrEd -- 

 36 39  0  0  0  0  0  0  0  0999 V2000
    0.5140   -0.8811    0.0000 C   0  0  0  0  0  0  0  0  0  0  0  0
    1.3952   -0.3854    0.0000 C   0  0  0  0  0  0  0  0  0  0  0  0
    2.2765   -0.8811    0.0000 C   0  0  0  0  0  0  0  0  0  0  0  0
    0.5140   -1.9092    0.0000 C   0  0  0  0  0  0  0  0  0  0  0  0
    2.2765   -1.9092    0.0000 C   0  0  0  0  0  0  0  0  0  0  0  0
    1.3952   -2.4170    0.0000 O   0  0  0  0  0  0  0  0  0  0  0  0
   -0.3367   -0.3854    0.0000 C   0  0  0  0  0  0  0  0  0  0  0  0
    1.3585    0.6122    0.0000 N   0  0  0  0  0  0  0  0  0  0  0  0
   -3.8614   -0.3305    0.0000 C   0  0  0  0  0  0  0  0  0  0  0  0
   -3.8367    0.6670    0.0000 N   0  0  0  0  0  0  0  0  0  0  0  0
    3.1576   -0.3610    0.0000 O   0  0  0  0  0  0  0  0  0  0  0  0
   -3.0106   -0.8568    0.0000 C   0  0  0  0  0  0  0  0  0  0  0  0
    3.1209    0.6426    0.0000 C   0  0  0  0  0  0  0  0  0  0  0  0
   -2.0990   -0.3610    0.0000 C   0  0  0  0  0  0  0  0  0  0  0  0
   -1.2177   -0.8811    0.0000 C   0  0  0  0  0  0  0  0  0  0  0  0
   -0.3367   -2.4170    0.0000 C   0  0  0  0  0  0  0  0  0  0  0  0
   -4.7731   -0.8014    0.0000 O   0  0  0  0  0  0  0  0  0  0  0  0
    2.5518    0.9915    0.0000 O   0  0  0  0  0  0  0  0  0  0  0  0
   -1.2177   -1.9092    0.0000 C   0  0  0  0  0  0  0  0  0  0  0  0
    3.9775    1.1749    0.0000 C   0  0  0  0  0  0  0  0  0  0  0  0
   -0.3367    0.6122    0.0000 O   0  0  0  0  0  0  0  0  0  0  0  0
    2.8639   -2.7353    0.0000 C   0  0  0  0  0  0  0  0  0  0  0  0
    3.2676   -1.8297    0.0000 C   0  0  0  0  0  0  0  0  0  0  0  0
    2.2396    1.1077    0.0000 C   0  0  0  0  0  0  0  0  0  0  0  0
    0.5140    1.1077    0.0000 C   0  0  0  0  0  0  0  0  0  0  0  0
   -4.6875    1.1994    0.0000 C   0  0  0  0  0  0  0  0  0  0  0  0
   -2.9554    1.1749    0.0000 C   0  0  0  0  0  0  0  0  0  0  0  0
    3.9471    2.2029    0.0000 C   0  0  0  0  0  0  0  0  0  0  0  0
    4.7731    2.7353    0.0000 C   0  0  0  0  0  0  0  0  0  0  0  0
    3.0658    2.6682    0.0000 C   0  0  0  0  0  0  0  0  0  0  0  0
   -4.6629    2.2029    0.0000 C   0  0  0  0  0  0  0  0  0  0  0  0
    0.5140    2.1111    0.0000 C   0  0  0  0  0  0  0  0  0  0  0  0
    2.2765    2.1111    0.0000 C   0  0  0  0  0  0  0  0  0  0  0  0
   -2.9252    2.1662    0.0000 C   0  0  0  0  0  0  0  0  0  0  0  0
   -3.7818    2.6986    0.0000 C   0  0  0  0  0  0  0  0  0  0  0  0
    1.3585    2.6069    0.0000 C   0  0  0  0  0  0  0  0  0  0  0  0
  2  1  1  0  0  0  0
  3  2  1  0  0  0  0
  4  1  2  0  0  0  0
  5  6  1  0  0  0  0
  6  4  1  0  0  0  0
  7  1  1  0  0  0  0
  2  8  1  0  0  0  0
  9 12  1  0  0  0  0
 10  9  1  0  0  0  0
  3 11  1  0  0  0  0
 12 14  2  0  0  0  0
 13 11  1  0  0  0  0
 14 15  1  0  0  0  0
 15  7  2  0  0  0  0
 16  4  1  0  0  0  0
 17  9  2  0  0  0  0
 18 13  2  0  0  0  0
 19 15  1  0  0  0  0
 20 13  1  0  0  0  0
 21  7  1  0  0  0  0
  5 22  1  0  0  0  0
 23  5  1  0  0  0  0
 24  8  1  0  0  0  0
 25  8  1  0  0  0  0
 26 10  1  0  0  0  0
 27 10  1  0  0  0  0
 28 20  1  0  0  0  0
 29 28  1  0  0  0  0
 30 28  1  0  0  0  0
 31 26  1  0  0  0  0
 32 25  1  0  0  0  0
 33 24  1  0  0  0  0
 34 27  1  0  0  0  0
 35 34  1  0  0  0  0
 36 32  1  0  0  0  0
 16 19  2  0  0  0  0
  5  3  1  0  0  0  0
 33 36  1  0  0  0  0
 35 31  1  0  0  0  0
M  END
>  <IDNUMBER> (0080-0032)
0080-0032

>  <available> (0080-0032)
86

>  <H_acceptor> (0080-0032)
6

>  <H_donor> (0080-0032)
1

>  <B_rotN> (0080-0032)
9

>  <N_O> (0080-0032)
7

>  <logP> (0080-0032)
4.9

>  <logD> (0080-0032)
0.73

>  <logSw> (0080-0032)
-2.82

>  <PSA> (0080-0032)
79.31

>  <Chiral_centers> (0080-0032)
2

>  <Name> (0080-0032)
5-hydroxy-2,2-dimethyl-6-[(1E)-3-oxo-3-(piperidin-1-yl)prop-1-en-1-yl]-4-(piperidin-1-yl)-3,4-dihydro-2H-1-benzopyran-3-yl 3-methylbutanoate

>  <Smile> (0080-0032)
C1CCN(C2c3c(c(C=CC(N4CCCCC4)=O)ccc3OC(C2OC(=O)CC(C)C)(C)C)O)CC1

>  <Collection> (0080-0032)
DC

>  <InChI Key> (0080-0032)
IVCDQEWYXBNGOX-WYMLVPIESA-N

>  <PERCENTSP3> (0080-0032)
65.5

$$$$

  -ISIS-  -- StrEd -- 

 30 33  0  0  0  0  0  0  0  0999 V2000
    1.9985   -0.0002    0.0000 C   0  0  0  0  0  0  0  0  0  0  0  0
    0.5702   -0.0002    0.0000 C   0  0  0  0  0  0  0  0  0  0  0  0
    2.7037   -0.4165    0.0000 C   0  0  0  0  0  0  0  0  0  0  0  0
   -0.8124   -0.4395    0.0000 C   0  0  0  0  0  0  0  0  0  0  0  0
    3.4040   -0.0002    0.0000 C   0  0  0  0  0  0  0  0  0  0  0  0
    1.2980   -0.4165    0.0000 C   0  0  0  0  0  0  0  0  0  0  0  0
    1.9985    0.8149    0.0000 C   0  0  0  0  0  0  0  0  0  0  0  0
   -1.8242    0.8149    0.0000 O   0  0  0  0  0  0  0  0  0  0  0  0
    3.4040    0.8149    0.0000 C   0  0  0  0  0  0  0  0  0  0  0  0
   -2.0670   -0.1191    0.0000 C   0  0  0  0  0  0  0  0  0  0  0  0
   -3.6282   -0.7005    0.0000 C   0  0  0  0  0  0  0  0  0  0  0  0
    2.7037    1.2316    0.0000 O   0  0  0  0  0  0  0  0  0  0  0  0
    0.5702    0.8149    0.0000 C   0  0  0  0  0  0  0  0  0  0  0  0
   -4.5807    0.8791    0.0000 C   0  0  0  0  0  0  0  0  0  0  0  0
   -3.3855    0.2976    0.0000 C   0  0  0  0  0  0  0  0  0  0  0  0
    1.2980    1.2316    0.0000 C   0  0  0  0  0  0  0  0  0  0  0  0
    4.1093   -0.4165    0.0000 C   0  0  0  0  0  0  0  0  0  0  0  0
    4.1093    1.2316    0.0000 C   0  0  0  0  0  0  0  0  0  0  0  0
    4.8141   -0.0002    0.0000 C   0  0  0  0  0  0  0  0  0  0  0  0
    4.8141    0.8149    0.0000 C   0  0  0  0  0  0  0  0  0  0  0  0
    2.7037   -1.2499    0.0000 O   0  0  0  0  0  0  0  0  0  0  0  0
    1.2980   -1.2499    0.0000 O   0  0  0  0  0  0  0  0  0  0  0  0
   -2.0670   -1.0988    0.0000 O   0  0  0  0  0  0  0  0  0  0  0  0
   -4.2280   -1.6162    0.0000 O   0  0  0  0  0  0  0  0  0  0  0  0
   -0.1533    1.2544    0.0000 O   0  0  0  0  0  0  0  0  0  0  0  0
   -5.5374    0.2518    0.0000 O   0  0  0  0  0  0  0  0  0  0  0  0
    5.5374   -0.4395    0.0000 O   0  0  0  0  0  0  0  0  0  0  0  0
    5.5374    1.2544    0.0000 O   0  0  0  0  0  0  0  0  0  0  0  0
   -3.3855    1.0758    0.0000 C   0  0  0  0  0  0  0  0  0  0  0  0
   -2.7355    1.6162    0.0000 O   0  0  0  0  0  0  0  0  0  0  0  0
  2  6  2  0  0  0  0
  3  1  1  0  0  0  0
  4  2  1  0  0  0  0
  5  3  1  0  0  0  0
  6  1  1  0  0  0  0
  7  1  2  0  0  0  0
  8  4  1  0  0  0  0
  9 12  1  0  0  0  0
 10  4  1  0  0  0  0
 11 10  1  0  0  0  0
 12  7  1  0  0  0  0
 13 16  2  0  0  0  0
 14 11  1  0  0  0  0
 15  8  1  0  0  0  0
 16  7  1  0  0  0  0
 17  5  1  0  0  0  0
 18  9  1  0  0  0  0
 19 17  2  0  0  0  0
 20 18  2  0  0  0  0
 21  3  2  0  0  0  0
 22  6  1  0  0  0  0
 10 23  1  0  0  0  0
 11 24  1  0  0  0  0
 25 13  1  0  0  0  0
 14 26  1  0  0  0  0
 27 19  1  0  0  0  0
 28 20  1  0  0  0  0
 15 29  1  0  0  0  0
 30 29  1  0  0  0  0
  2 13  1  0  0  0  0
  5  9  2  0  0  0  0
 19 20  1  0  0  0  0
 15 14  1  0  0  0  0
M  END
>  <IDNUMBER> (0120-0020)
0120-0020

>  <available> (0120-0020)
235

>  <H_acceptor> (0120-0020)
11

>  <H_donor> (0120-0020)
8

>  <B_rotN> (0120-0020)
10

>  <N_O> (0120-0020)
11

>  <logP> (0120-0020)
-0.37

>  <logD> (0120-0020)
-2.88

>  <logSw> (0120-0020)
-1.62

>  <PSA> (0120-0020)
197.37

>  <Chiral_centers> (0120-0020)
5

>  <Name> (0120-0020)
1,3,6,7-tetrahydroxy-2-[3,4,5-trihydroxy-6-(hydroxymethyl)oxan-2-yl]-9H-xanthen-9-one

>  <Smile> (0120-0020)
OCC1OC(c2c(cc3c(c2O)C(=O)c2c(O3)cc(c(c2)O)O)O)C(O)C(C1O)O

>  <Collection> (0120-0020)
DC

>  <InChI Key> (0120-0020)
AEDDIBAIWPIIBD-UHFFFAOYSA-N

>  <PERCENTSP3> (0120-0020)
31.6

$$$$

  -ISIS-  -- StrEd -- 

 17 19  0  0  0  0  0  0  0  0999 V2000
    1.9946    0.2831    0.0000 C   0  0  0  0  0  0  0  0  0  0  0  0
   -1.2650   -0.2320    0.0000 C   0  0  0  0  0  0  0  0  0  0  0  0
    1.4079   -0.5534    0.0000 C   0  0  0  0  0  0  0  0  0  0  0  0
    0.4743   -0.2320    0.0000 C   0  0  0  0  0  0  0  0  0  0  0  0
   -0.4081   -0.7472    0.0000 C   0  0  0  0  0  0  0  0  0  0  0  0
    1.4079    1.0636    0.0000 O   0  0  0  0  0  0  0  0  0  0  0  0
    0.4743    0.7728    0.0000 C   0  0  0  0  0  0  0  0  0  0  0  0
   -1.2650    0.7728    0.0000 C   0  0  1  0  0  0  0  0  0  0  0  0
   -0.4081    1.2625    0.0000 C   0  0  0  0  0  0  0  0  0  0  0  0
    2.9995    0.2831    0.0000 O   0  0  0  0  0  0  0  0  0  0  0  0
    1.7243   -1.5075    0.0000 C   0  0  0  0  0  0  0  0  0  0  0  0
   -2.1425   -0.7472    0.0000 C   0  0  0  0  0  0  0  0  0  0  0  0
   -2.1425    1.2625    0.0000 C   0  0  0  0  0  0  0  0  0  0  0  0
   -1.2650    1.7523    0.0000 C   0  0  0  0  0  0  0  0  0  0  0  0
   -2.9995    0.7728    0.0000 C   0  0  0  0  0  0  0  0  0  0  0  0
   -2.9995   -0.2320    0.0000 C   0  0  0  0  0  0  0  0  0  0  0  0
   -2.1680   -1.7523    0.0000 C   0  0  0  0  0  0  0  0  0  0  0  0
  2  5  2  0  0  0  0
  3  1  1  0  0  0  0
  4  3  1  0  0  0  0
  5  4  1  0  0  0  0
  6  1  1  0  0  0  0
  7  6  1  0  0  0  0
  8  9  1  0  0  0  0
  9  7  1  0  0  0  0
 10  1  2  0  0  0  0
 11  3  2  0  0  0  0
 12  2  1  0  0  0  0
 13  8  1  0  0  0  0
  8 14  1  1  0  0  0
 15 13  1  0  0  0  0
 16 12  1  0  0  0  0
 17 12  1  0  0  0  0
  7  4  1  0  0  0  0
  8  2  1  0  0  0  0
 15 16  1  0  0  0  0
M  END
>  <IDNUMBER> (0407-0027)
0407-0027

>  <available> (0407-0027)
51

>  <H_acceptor> (0407-0027)
2

>  <H_donor> (0407-0027)
0

>  <B_rotN> (0407-0027)
0

>  <N_O> (0407-0027)
2

>  <logP> (0407-0027)
2.55

>  <logD> (0407-0027)
2.55

>  <logSw> (0407-0027)
-2.89

>  <PSA> (0407-0027)
26.3

>  <Chiral_centers> (0407-0027)
4

>  <Name> (0407-0027)
5,8a-dimethyl-3-methylidene-2H,3H,3aH,5H,6H,7H,8H,8aH,9H,9aH-naphtho[2,3-b]furan-2-one

>  <Smile> (0407-0027)
C1(C(C2/C=C/3\[C@@](CC2O1)(CCCC3C)C)=C)=O

>  <Collection> (0407-0027)
DC

>  <InChI Key> (0407-0027)
PXOYOCNNSUAQNS-PULWUANESA-N

>  <PERCENTSP3> (0407-0027)
66.667

$$$$

  -ISIS-  -- StrEd -- 

 19 21  0  0  0  0  0  0  0  0999 V2000
   -0.8904   -0.0850    0.0000 C   0  0  0  0  0  0  0  0  0  0  0  0
   -0.0073   -0.5991    0.0000 C   0  0  0  0  0  0  0  0  0  0  0  0
   -1.0552    0.9388    0.0000 C   0  0  0  0  0  0  0  0  0  0  0  0
    0.0655   -1.5987    0.0000 O   0  0  0  0  0  0  0  0  0  0  0  0
    1.0212   -1.8703    0.0000 C   0  0  0  0  0  0  0  0  0  0  0  0
    1.6034   -1.0067    0.0000 C   0  0  0  0  0  0  0  0  0  0  0  0
    0.9484   -0.2256    0.0000 C   0  0  0  0  0  0  0  0  0  0  0  0
   -1.7878   -0.5410    0.0000 C   0  0  0  0  0  0  0  0  0  0  0  0
   -2.0450    1.0649    0.0000 C   0  0  0  0  0  0  0  0  0  0  0  0
    1.2540    0.7496    0.0000 C   0  0  0  0  0  0  0  0  0  0  0  0
   -0.3566    1.6811    0.0000 C   0  0  0  0  0  0  0  0  0  0  0  0
    1.3123   -2.6708    0.0000 O   0  0  0  0  0  0  0  0  0  0  0  0
   -2.5107    0.2061    0.0000 C   0  0  0  0  0  0  0  0  0  0  0  0
    2.5107   -0.8903    0.0000 C   0  0  0  0  0  0  0  0  0  0  0  0
   -1.9722   -1.3658    0.0000 O   0  0  0  0  0  0  0  0  0  0  0  0
    0.6719    1.6131    0.0000 C   0  0  0  0  0  0  0  0  0  0  0  0
   -1.2979    1.9527    0.0000 O   0  0  0  0  0  0  0  0  0  0  0  0
   -0.7157   -1.0746    0.0000 C   0  0  0  0  0  0  0  0  0  0  0  0
   -0.7496    2.6708    0.0000 C   0  0  0  0  0  0  0  0  0  0  0  0
  2  1  1  0  0  0  0
  3  1  1  0  0  0  0
  4  2  1  0  0  0  0
  5  4  1  0  0  0  0
  7  6  1  0  0  0  0
  7  2  1  0  0  0  0
  8  1  1  0  0  0  0
  9  3  1  0  0  0  0
 10  7  1  0  0  0  0
 11  3  1  0  0  0  0
 12  5  2  0  0  0  0
 13  8  1  0  0  0  0
 14  6  2  0  0  0  0
 15  8  2  0  0  0  0
 16 11  1  0  0  0  0
  3 17  1  0  0  0  0
  1 18  1  0  0  0  0
 11 19  1  0  0  0  0
 13  9  1  0  0  0  0
 16 10  1  0  0  0  0
  5  6  1  0  0  0  0
M  END
>  <IDNUMBER> (N003-0017)
N003-0017

>  <available> (N003-0017)
53

>  <H_acceptor> (N003-0017)
4

>  <H_donor> (N003-0017)
1

>  <B_rotN> (N003-0017)
1

>  <N_O> (N003-0017)
4

>  <logP> (N003-0017)
1.212

>  <logD> (N003-0017)
0.55611

>  <logSw> (N003-0017)
-1.53846

>  <PSA> (N003-0017)
63.6

>  <Chiral_centers> (N003-0017)
5

>  <Name> (N003-0017)
6a-hydroxy-6,9a-dimethyl-3-methylidene-dodecahydroazuleno[4,5-b]furan-2,9-dione

>  <Smile> (N003-0017)
O1C2C3(C(CCC3=O)(C(CCC2C(=C)C1=O)C)O)C

>  <Collection> (N003-0017)
DC

>  <InChI Key> (N003-0017)
GEUJJEYGSRWXPC-UHFFFAOYSA-N

>  <PERCENTSP3> (N003-0017)
73.3

$$$$

  -ISIS-  -- StrEd -- 

 22 24  0  0  0  0  0  0  0  0999 V2000
   -0.3757    1.2416    0.0000 C   0  0  0  0  0  0  0  0  0  0  0  0
    0.5065    1.7382    0.0000 C   0  0  0  0  0  0  0  0  0  0  0  0
   -1.2187   -0.2679    0.0000 C   0  0  0  0  0  0  0  0  0  0  0  0
   -2.0747    1.2677    0.0000 O   0  0  0  0  0  0  0  0  0  0  0  0
   -1.2187    1.7382    0.0000 C   0  0  0  0  0  0  0  0  0  0  0  0
   -2.1009    0.2679    0.0000 C   0  0  0  0  0  0  0  0  0  0  0  0
   -0.3757    0.2679    0.0000 C   0  0  0  0  0  0  0  0  0  0  0  0
    1.3494    1.2416    0.0000 O   0  0  0  0  0  0  0  0  0  0  0  0
   -1.2187   -1.2677    0.0000 N   0  0  0  0  0  0  0  0  0  0  0  0
   -2.1009   -2.7380    0.0000 C   0  0  0  0  0  0  0  0  0  0  0  0
    2.1989    1.7122    0.0000 C   0  0  0  0  0  0  0  0  0  0  0  0
    1.3755    3.2477    0.0000 C   0  0  0  0  0  0  0  0  0  0  0  0
    0.5065    2.7511    0.0000 C   0  0  0  0  0  0  0  0  0  0  0  0
   -2.1009   -1.7708    0.0000 N   0  0  0  0  0  0  0  0  0  0  0  0
    2.2315    2.7511    0.0000 C   0  0  0  0  0  0  0  0  0  0  0  0
   -2.9568   -3.2477    0.0000 S   0  0  0  0  0  0  0  0  0  0  0  0
   -1.2187    2.7511    0.0000 C   0  0  0  0  0  0  0  0  0  0  0  0
    3.0745    1.1827    0.0000 O   0  0  0  0  0  0  0  0  0  0  0  0
   -0.3757    3.2477    0.0000 C   0  0  0  0  0  0  0  0  0  0  0  0
   -1.2187   -3.2477    0.0000 N   0  0  0  0  0  0  0  0  0  0  0  0
   -2.7282   -0.5424    0.0000 C   0  0  0  0  0  0  0  0  0  0  0  0
   -3.0745    0.4247    0.0000 C   0  0  0  0  0  0  0  0  0  0  0  0
  2  1  1  0  0  0  0
  3  7  1  0  0  0  0
  4  5  1  0  0  0  0
  5  1  2  0  0  0  0
  6  3  1  0  0  0  0
  7  1  1  0  0  0  0
  8  2  1  0  0  0  0
  9  3  2  0  0  0  0
 10 14  1  0  0  0  0
 11  8  1  0  0  0  0
 12 13  1  0  0  0  0
 13  2  2  0  0  0  0
 14  9  1  0  0  0  0
 15 12  2  0  0  0  0
 16 10  2  0  0  0  0
 17  5  1  0  0  0  0
 18 11  2  0  0  0  0
 19 17  2  0  0  0  0
 20 10  1  0  0  0  0
  6 21  1  0  0  0  0
 22  6  1  0  0  0  0
  4  6  1  0  0  0  0
 13 19  1  0  0  0  0
 11 15  1  0  0  0  0
M  END
>  <IDNUMBER> (N005-0008)
N005-0008

>  <available> (N005-0008)
230

>  <H_acceptor> (N005-0008)
5

>  <H_donor> (N005-0008)
0

>  <B_rotN> (N005-0008)
7

>  <N_O> (N005-0008)
5

>  <logP> (N005-0008)
4.89

>  <logD> (N005-0008)
6.4

>  <logSw> (N005-0008)
-7.36

>  <PSA> (N005-0008)
118.03

>  <Chiral_centers> (N005-0008)
0

>  <Name> (N005-0008)
{[(9Z)-8,8-dimethyl-2-oxo-2H,8H,9H,10H-pyrano[2,3-h]chromen-9-ylidene]amino}thiourea

>  <Smile> (N005-0008)
CC1(C(Cc2c(O1)ccc1c2OC(C=C1)=O)=NNC(=S)N)C

>  <Collection> (N005-0008)
DC

>  <InChI Key> (N005-0008)
JLNVHQKBLYOULF-BOPFTXTBSA-N

>  <PERCENTSP3> (N005-0008)
26.7

$$$$

  -ISIS-  -- StrEd -- 

 34 37  0  0  0  0  0  0  0  0999 V2000
   -0.0134    1.7418    0.0000 C   0  0  0  0  0  0  0  0  0  0  0  0
   -0.0211    2.5320    0.0000 O   0  0  0  0  0  0  0  0  0  0  0  0
   -0.8959   -0.7904    0.0000 C   0  0  0  0  0  0  0  0  0  0  0  0
   -0.0211   -1.2967    0.0000 C   0  0  0  0  0  0  0  0  0  0  0  0
   -1.7629   -1.2967    0.0000 C   0  0  0  0  0  0  0  0  0  0  0  0
   -0.0134    0.7366    0.0000 C   0  0  0  0  0  0  0  0  0  0  0  0
    0.8728    2.2289    0.0000 C   0  0  0  0  0  0  0  0  0  0  0  0
   -0.0211   -2.3173    0.0000 C   0  0  0  0  0  0  0  0  0  0  0  0
   -1.7629   -2.3173    0.0000 C   0  0  0  0  0  0  0  0  0  0  0  0
   -0.8959   -2.8236    0.0000 O   0  0  0  0  0  0  0  0  0  0  0  0
   -0.8959    0.2148    0.0000 O   0  0  0  0  0  0  0  0  0  0  0  0
   -2.6261   -0.7904    0.0000 O   0  0  0  0  0  0  0  0  0  0  0  0
   -2.6261    0.2300    0.0000 C   0  0  0  0  0  0  0  0  0  0  0  0
    1.7744   -2.3173    0.0000 C   0  0  0  0  0  0  0  0  0  0  0  0
    0.8728   -0.7904    0.0000 C   0  0  0  0  0  0  0  0  0  0  0  0
    2.6682   -2.8084    0.0000 O   0  0  0  0  0  0  0  0  0  0  0  0
    0.8728   -2.8084    0.0000 C   0  0  0  0  0  0  0  0  0  0  0  0
    1.7744   -1.2967    0.0000 C   0  0  0  0  0  0  0  0  0  0  0  0
    3.5239   -2.3173    0.0000 C   0  0  0  0  0  0  0  0  0  0  0  0
    2.6682   -0.7904    0.0000 C   0  0  0  0  0  0  0  0  0  0  0  0
   -3.5008    0.7366    0.0000 C   0  0  0  0  0  0  0  0  0  0  0  0
    3.5239   -1.2967    0.0000 C   0  0  0  0  0  0  0  0  0  0  0  0
    0.8612    0.2494    0.0000 O   0  0  0  0  0  0  0  0  0  0  0  0
   -1.7437    0.7366    0.0000 O   0  0  0  0  0  0  0  0  0  0  0  0
    4.3871   -2.8084    0.0000 O   0  0  0  0  0  0  0  0  0  0  0  0
   -3.5008    1.7609    0.0000 C   0  0  0  0  0  0  0  0  0  0  0  0
   -0.9689    1.7418    0.0000 C   0  0  0  0  0  0  0  0  0  0  0  0
    1.7361    1.7148    0.0000 C   0  0  0  0  0  0  0  0  0  0  0  0
   -2.6261   -2.8236    0.0000 C   0  0  0  0  0  0  0  0  0  0  0  0
   -1.7437   -3.2303    0.0000 C   0  0  0  0  0  0  0  0  0  0  0  0
   -4.3488    0.2148    0.0000 C   0  0  0  0  0  0  0  0  0  0  0  0
   -2.6261    2.2674    0.0000 C   0  0  0  0  0  0  0  0  0  0  0  0
   -4.3871    2.2674    0.0000 H   0  0  0  0  0  0  0  0  0  0  0  0
    0.8881    3.2303    0.0000 H   0  0  0  0  0  0  0  0  0  0  0  0
  1  2  1  0  0  0  0
  3 11  1  0  0  0  0
  4  3  1  0  0  0  0
  5  3  1  0  0  0  0
  6  1  1  0  0  0  0
  7  1  1  0  0  0  0
  8  4  1  0  0  0  0
  9  5  1  0  0  0  0
 10  9  1  0  0  0  0
 11  6  1  0  0  0  0
  5 12  1  0  0  0  0
 13 12  1  0  0  0  0
 14 18  2  0  0  0  0
 15  4  2  0  0  0  0
 16 14  1  0  0  0  0
 17  8  2  0  0  0  0
 18 15  1  0  0  0  0
 19 22  1  0  0  0  0
 20 18  1  0  0  0  0
 21 13  1  0  0  0  0
 22 20  2  0  0  0  0
 23  6  2  0  0  0  0
 24 13  2  0  0  0  0
 25 19  2  0  0  0  0
 26 21  2  0  0  0  0
 27  1  1  0  0  0  0
 28  7  1  0  0  0  0
 29  9  1  0  0  0  0
  9 30  1  0  0  0  0
 31 21  1  0  0  0  0
 32 26  1  0  0  0  0
 33 26  1  0  0  0  0
 34  7  1  0  0  0  0
  7  2  1  0  0  0  0
  8 10  1  0  0  0  0
 14 17  1  0  0  0  0
 19 16  1  0  0  0  0
M  END
>  <IDNUMBER> (N034-0004)
N034-0004

>  <available> (N034-0004)
191

>  <H_acceptor> (N034-0004)
8

>  <H_donor> (N034-0004)
0

>  <B_rotN> (N034-0004)
6

>  <N_O> (N034-0004)
8

>  <logP> (N034-0004)
3.78

>  <logD> (N034-0004)
4

>  <logSw> (N034-0004)
-5.57

>  <PSA> (N034-0004)
100.66

>  <Chiral_centers> (N034-0004)
4

>  <Name> (N034-0004)
2,2-dimethyl-3-{[(2Z)-2-methylbut-2-enoyl]oxy}-8-oxo-2H,3H,4H,8H-pyrano[3,2-g]chromen-4-yl 2,3-dimethyloxirane-2-carboxylate

>  <Smile> (N034-0004)
CC=C(C(OC1C(OC(C2(C)C(O2)C)=O)c2c(OC1(C)C)cc1OC(C=Cc1c2)=O)=O)C

>  <Collection> (N034-0004)
DC

>  <InChI Key> (N034-0004)
SHZIIRHXBSCNRY-GHXNOFRVSA-N

>  <PERCENTSP3> (N034-0004)
45.8

$$$$

  -ISIS-  -- StrEd -- 

 42 48  0  0  0  0  0  0  0  0999 V2000
    1.5503   -0.2832    0.0000 C   0  0  2  0  0  0  0  0  0  0  0  0
    1.7160    0.4144    0.0000 C   0  0  2  0  0  0  0  0  0  0  0  0
    0.0448    0.4628    0.0000 C   0  0  1  0  0  0  0  0  0  0  0  0
   -0.2038    1.3398    0.0000 C   0  0  2  0  0  0  0  0  0  0  0  0
    1.2673    1.0429    0.0000 C   0  0  0  0  0  0  0  0  0  0  0  0
    0.1899   -0.2486    0.0000 C   0  0  0  0  0  0  0  0  0  0  0  0
   -0.3557   -0.7665    0.0000 C   0  0  1  0  0  0  0  0  0  0  0  0
    0.4870    1.0429    0.0000 C   0  0  0  0  0  0  0  0  0  0  0  0
   -0.6180    0.1313    0.0000 N   0  0  0  0  0  0  0  0  0  0  0  0
    0.8529   -0.5664    0.0000 C   0  0  2  0  0  0  0  0  0  0  0  0
    1.5503    1.6711    0.0000 C   0  0  2  0  0  0  0  0  0  0  0  0
    0.7702    2.1683    0.0000 C   0  0  2  0  0  0  0  0  0  0  0  0
    3.5049    1.9198    0.0000 C   0  0  0  0  0  0  0  0  0  0  0  0
    0.2383    1.6711    0.0000 C   0  0  0  0  0  0  0  0  0  0  0  0
   -1.0048   -1.3467    0.0000 C   0  0  0  0  0  0  0  0  0  0  0  0
   -1.7646   -3.3840    0.0000 C   0  0  0  0  0  0  0  0  0  0  0  0
    0.7702    3.2458    0.0000 C   0  0  2  0  0  0  0  0  0  0  0  0
   -0.9496   -2.9349    0.0000 C   0  0  0  0  0  0  0  0  0  0  0  0
   -0.6732    0.6974    0.0000 C   0  0  2  0  0  0  0  0  0  0  0  0
   -0.0932   -1.9060    0.0000 C   0  0  0  0  0  0  0  0  0  0  0  0
   -1.0876   -0.5318    0.0000 C   0  0  0  0  0  0  0  0  0  0  0  0
   -0.9496   -2.2860    0.0000 O   0  0  0  0  0  0  0  0  0  0  0  0
    2.2479   -0.9460    0.0000 O   0  0  0  0  0  0  0  0  0  0  0  0
   -1.7646   -4.3577    0.0000 C   0  0  0  0  0  0  0  0  0  0  0  0
    2.7936    0.4280    0.0000 O   0  0  0  0  0  0  0  0  0  0  0  0
   -0.0587   -3.4460    0.0000 O   0  0  0  0  0  0  0  0  0  0  0  0
   -1.2326    0.2141    0.0000 C   0  0  0  0  0  0  0  0  0  0  0  0
    0.8529   -1.5400    0.0000 O   0  0  0  0  0  0  0  0  0  0  0  0
    2.3654    1.6711    0.0000 O   0  0  0  0  0  0  0  0  0  0  0  0
   -1.7783   -0.1174    0.0000 C   0  0  0  0  0  0  0  0  0  0  0  0
   -0.9496   -4.8410    0.0000 N   0  0  0  0  0  0  0  0  0  0  0  0
    0.0587    3.8949    0.0000 O   0  0  0  0  0  0  0  0  0  0  0  0
   -2.6069   -2.9349    0.0000 C   0  0  0  0  0  0  0  0  0  0  0  0
   -0.8183    1.4087    0.0000 O   0  0  0  0  0  0  0  0  0  0  0  0
   -2.6069   -4.8410    0.0000 C   0  0  0  0  0  0  0  0  0  0  0  0
    1.6679   -2.0580    0.0000 C   0  0  0  0  0  0  0  0  0  0  0  0
    1.9785    2.2860    0.0000 C   0  0  0  0  0  0  0  0  0  0  0  0
    0.2383    4.8410    0.0000 C   0  0  0  0  0  0  0  0  0  0  0  0
   -1.5160    1.6367    0.0000 C   0  0  0  0  0  0  0  0  0  0  0  0
   -2.0614   -1.0151    0.0000 C   0  0  0  0  0  0  0  0  0  0  0  0
   -3.4703   -3.3840    0.0000 C   0  0  0  0  0  0  0  0  0  0  0  0
   -3.5049   -4.3577    0.0000 C   0  0  0  0  0  0  0  0  0  0  0  0
  2  1  1  0  0  0  0
  3  4  1  6  0  0  0
  1  4  1  6  0  0  0
  5  2  1  0  0  0  0
  6 10  1  0  0  0  0
  7  6  1  0  0  0  0
  8  3  1  0  0  0  0
  4  9  1  6  0  0  0
 10  1  1  0  0  0  0
 11  5  1  0  0  0  0
 12 17  1  6  0  0  0
  2 13  1  6  0  0  0
 14  8  1  0  0  0  0
 15  9  1  0  0  0  0
 16 18  1  0  0  0  0
 17 13  1  0  0  0  0
 18 22  1  0  0  0  0
 19  3  1  0  0  0  0
  7 20  1  1  0  0  0
 21  7  1  0  0  0  0
 22 20  1  0  0  0  0
 23  1  1  0  0  0  0
 24 16  1  0  0  0  0
  2 25  1  1  0  0  0
 26 18  2  0  0  0  0
 27 19  1  0  0  0  0
 10 28  1  1  0  0  0
 11 29  1  6  0  0  0
 30  9  1  0  0  0  0
 31 24  1  0  0  0  0
 17 32  1  1  0  0  0
 33 16  2  0  0  0  0
 19 34  1  6  0  0  0
 35 24  2  0  0  0  0
 36 28  1  0  0  0  0
 37 29  1  0  0  0  0
 38 32  1  0  0  0  0
 39 34  1  0  0  0  0
 40 30  1  0  0  0  0
 41 33  1  0  0  0  0
 42 41  2  0  0  0  0
  6  3  1  0  0  0  0
  7 15  1  6  0  0  0
  5  8  1  0  0  0  0
 21 27  1  0  0  0  0
 14 12  1  0  0  0  0
 12 11  1  0  0  0  0
 35 42  1  0  0  0  0
M  END
>  <IDNUMBER> (N060-0122)
N060-0122

>  <available> (N060-0122)
317

>  <H_acceptor> (N060-0122)
9

>  <H_donor> (N060-0122)
4

>  <B_rotN> (N060-0122)
11

>  <N_O> (N060-0122)
10

>  <logP> (N060-0122)
-0.27

>  <logD> (N060-0122)
1.55

>  <logSw> (N060-0122)
-5.12

>  <PSA> (N060-0122)
132.94

>  <Chiral_centers> (N060-0122)
13

>  <Name> (N060-0122)
{11-ETHYL-8,9-DIHYDROXY-4,6,16,18-TETRAMETHOXY-11-AZAHEXACYCLO[7.7.2.1^(2,5).0^(1,10).0^(3,8).0^(13,17)]NONADECAN-13-YL}METHYL 2-AMINOBENZOATE

>  <Smile> (N060-0122)
c1cc(c(C(OCC23C4C5(C6C7C(C(O)(C4OC)C5N(C3)CC)(O)CC(C(C7OC)C6)OC)C(CC2)OC)=O)cc1)N

>  <Collection> (N060-0122)
NC

>  <InChI Key> (N060-0122)
NNDHDYDFEDRMGH-PDSTWZNISA-N

>  <PERCENTSP3> (N060-0122)
78.1

$$$$

  -ISIS-  -- StrEd -- 

 39 45  0  0  0  0  0  0  0  0999 V2000
    0.5609    0.9831    0.0000 C   0  0  2  0  0  0  0  0  0  0  0  0
    1.0098    0.3455    0.0000 C   0  0  1  0  0  0  0  0  0  0  0  0
   -0.7026    0.3867    0.0000 C   0  0  2  0  0  0  0  0  0  0  0  0
   -0.7026    1.1955    0.0000 C   0  0  1  0  0  0  0  0  0  0  0  0
    0.8444   -0.3808    0.0000 C   0  0  1  0  0  0  0  0  0  0  0  0
   -0.2361    0.9831    0.0000 C   0  0  0  0  0  0  0  0  0  0  0  0
   -0.5490   -0.3512    0.0000 C   0  0  0  0  0  0  0  0  0  0  0  0
   -1.1156   -0.8767    0.0000 C   0  0  2  0  0  0  0  0  0  0  0  0
   -1.4523    0.0326    0.0000 N   0  0  0  0  0  0  0  0  0  0  0  0
    0.8444    1.6207    0.0000 C   0  0  2  0  0  0  0  0  0  0  0  0
    0.0473    2.1461    0.0000 C   0  0  2  0  0  0  0  0  0  0  0  0
    2.8397    1.8864    0.0000 C   0  0  0  0  0  0  0  0  0  0  0  0
   -0.0353   -1.9395    0.0000 C   0  0  0  0  0  0  0  0  0  0  0  0
    0.1358   -0.6760    0.0000 C   0  0  0  0  0  0  0  0  0  0  0  0
   -0.5017    1.6322    0.0000 C   0  0  0  0  0  0  0  0  0  0  0  0
    0.1358   -2.9018    0.0000 C   0  0  0  0  0  0  0  0  0  0  0  0
   -0.9860   -1.6088    0.0000 O   0  0  0  0  0  0  0  0  0  0  0  0
   -1.7653   -1.4552    0.0000 C   0  0  0  0  0  0  0  0  0  0  0  0
    0.0473    3.2323    0.0000 C   0  0  2  0  0  0  0  0  0  0  0  0
   -1.4406    0.6289    0.0000 C   0  0  2  0  0  0  0  0  0  0  0  0
   -1.8478   -0.6346    0.0000 C   0  0  0  0  0  0  0  0  0  0  0  0
   -0.6021   -3.5510    0.0000 C   0  0  0  0  0  0  0  0  0  0  0  0
    0.7264   -1.2840    0.0000 O   0  0  0  0  0  0  0  0  0  0  0  0
    1.3106    0.9653    0.0000 O   0  0  0  0  0  0  0  0  0  0  0  0
    1.7358    0.3455    0.0000 O   0  0  0  0  0  0  0  0  0  0  0  0
   -2.0072    0.1328    0.0000 C   0  0  0  0  0  0  0  0  0  0  0  0
    1.6649    1.6207    0.0000 O   0  0  0  0  0  0  0  0  0  0  0  0
   -2.5563   -0.2096    0.0000 C   0  0  0  0  0  0  0  0  0  0  0  0
   -1.5410   -3.2264    0.0000 N   0  0  0  0  0  0  0  0  0  0  0  0
   -0.6906    3.8995    0.0000 O   0  0  0  0  0  0  0  0  0  0  0  0
    1.0805   -3.2264    0.0000 C   0  0  0  0  0  0  0  0  0  0  0  0
   -1.5939    1.3666    0.0000 O   0  0  0  0  0  0  0  0  0  0  0  0
   -0.4192   -4.5311    0.0000 C   0  0  0  0  0  0  0  0  0  0  0  0
    1.2932    2.2582    0.0000 C   0  0  0  0  0  0  0  0  0  0  0  0
   -0.5017    4.8678    0.0000 C   0  0  0  0  0  0  0  0  0  0  0  0
   -2.3025    1.6030    0.0000 C   0  0  0  0  0  0  0  0  0  0  0  0
   -2.8397   -1.1307    0.0000 C   0  0  0  0  0  0  0  0  0  0  0  0
    1.2694   -4.2065    0.0000 C   0  0  0  0  0  0  0  0  0  0  0  0
    0.5137   -4.8678    0.0000 C   0  0  0  0  0  0  0  0  0  0  0  0
  2  1  1  0  0  0  0
  6  3  1  0  0  0  0
  3  4  1  6  0  0  0
  5  2  1  0  0  0  0
  6  1  1  0  0  0  0
  7  3  1  0  0  0  0
  8  7  1  0  0  0  0
  4  9  1  6  0  0  0
 10  1  1  0  0  0  0
 11 10  1  0  0  0  0
  2 12  1  6  0  0  0
 13 17  1  0  0  0  0
 14  5  1  0  0  0  0
 15  6  1  0  0  0  0
 16 13  1  0  0  0  0
  8 17  1  1  0  0  0
  8 18  1  6  0  0  0
 11 19  1  6  0  0  0
 20  3  1  0  0  0  0
 21 26  1  0  0  0  0
 22 16  2  0  0  0  0
 23 13  2  0  0  0  0
  1 24  1  1  0  0  0
  2 25  1  1  0  0  0
 26 20  1  0  0  0  0
 10 27  1  6  0  0  0
 28  9  1  0  0  0  0
 29 22  1  0  0  0  0
 19 30  1  1  0  0  0
 31 16  1  0  0  0  0
 20 32  1  6  0  0  0
 33 22  1  0  0  0  0
 34 27  1  0  0  0  0
 35 30  1  0  0  0  0
 36 32  1  0  0  0  0
 37 28  1  0  0  0  0
 38 31  2  0  0  0  0
 39 38  1  0  0  0  0
 15 11  1  0  0  0  0
  5  4  1  6  0  0  0
 19 12  1  0  0  0  0
  7 14  1  0  0  0  0
 21  8  1  0  0  0  0
 18  9  1  0  0  0  0
 33 39  2  0  0  0  0
M  END
>  <IDNUMBER> (N060-0121)
N060-0121

>  <available> (N060-0121)
366

>  <H_acceptor> (N060-0121)
8

>  <H_donor> (N060-0121)
4

>  <B_rotN> (N060-0121)
9

>  <N_O> (N060-0121)
9

>  <logP> (N060-0121)
0.16

>  <logD> (N060-0121)
1.98

>  <logSw> (N060-0121)
-5.03

>  <PSA> (N060-0121)
123.71

>  <Chiral_centers> (N060-0121)
12

>  <Name> (N060-0121)
11-ETHYL-3,8-DIHYDROXY-4,6,16-TRIMETHOXY-11-AZAHEXACYCLO[7.7.2.1^(2,5).0^(1,10).0^(3,8).0^(13,17)]NONADECAN-13-YL 2-AMINOBENZOATE

>  <Smile> (N060-0121)
c1cc(c(C(OC23C4C5(C6C7(C(OC)C(C(CC7(O)C(C5N(C3)CC)C4)OC)C6)O)C(OC)CC2)=O)cc1)N

>  <Collection> (N060-0121)
NC

>  <InChI Key> (N060-0121)
VSUODASNSRJNCP-WTNYCMAGSA-N

>  <PERCENTSP3> (N060-0121)
76.7

$$$$

  -ISIS-  -- StrEd -- 

 24 26  0  0  0  0  0  0  0  0999 V2000
   -0.3745    0.3633    0.0000 C   0  0  2  0  0  0  0  0  0  0  0  0
    1.3007   -2.5929    0.0000 C   0  0  0  0  0  0  0  0  0  0  0  0
    0.3688   -2.2492    0.0000 C   0  0  0  0  0  0  0  0  0  0  0  0
    1.3560    0.8126    0.0000 C   0  0  0  0  0  0  0  0  0  0  0  0
    1.4115   -0.9955    0.0000 C   0  0  0  0  0  0  0  0  0  0  0  0
    0.4243   -1.2618    0.0000 C   0  0  2  0  0  0  0  0  0  0  0  0
    1.9439   -1.8497    0.0000 O   0  0  0  0  0  0  0  0  0  0  0  0
    0.3965    1.0011    0.0000 C   0  0  1  0  0  0  0  0  0  0  0  0
   -1.2009    0.9180    0.0000 C   0  0  1  0  0  0  0  0  0  0  0  0
    1.8108   -0.0915    0.0000 C   0  0  0  0  0  0  0  0  0  0  0  0
    0.0527    1.9330    0.0000 C   0  0  2  0  0  0  0  0  0  0  0  0
   -0.3745   -0.6517    0.0000 C   0  0  0  0  0  0  0  0  0  0  0  0
   -0.9345    1.8774    0.0000 C   0  0  0  0  0  0  0  0  0  0  0  0
    0.6128    2.7816    0.0000 O   0  0  0  0  0  0  0  0  0  0  0  0
    1.6501    2.7316    0.0000 C   0  0  0  0  0  0  0  0  0  0  0  0
    1.6222   -3.5802    0.0000 O   0  0  0  0  0  0  0  0  0  0  0  0
   -0.5075   -2.8092    0.0000 C   0  0  0  0  0  0  0  0  0  0  0  0
    2.1270    1.8497    0.0000 O   0  0  0  0  0  0  0  0  0  0  0  0
   -2.1826    0.9457    0.0000 O   0  0  0  0  0  0  0  0  0  0  0  0
    1.9662    1.4781    0.0000 C   0  0  0  0  0  0  0  0  0  0  0  0
   -1.8388    0.1469    0.0000 C   0  0  0  0  0  0  0  0  0  0  0  0
    2.1826    3.5802    0.0000 C   0  0  0  0  0  0  0  0  0  0  0  0
    0.9290    1.8497    0.0000 H   0  0  0  0  0  0  0  0  0  0  0  0
   -1.1731   -0.2523    0.0000 H   0  0  0  0  0  0  0  0  0  0  0  0
  2  3  1  0  0  0  0
  6  3  1  1  0  0  0
  4  8  1  0  0  0  0
  5  6  1  0  0  0  0
  6 12  1  0  0  0  0
  7  5  1  0  0  0  0
  8  1  1  0  0  0  0
  9  1  1  0  0  0  0
 10  4  2  0  0  0  0
 11  8  1  0  0  0  0
 12  1  1  0  0  0  0
 13  9  1  0  0  0  0
 11 14  1  6  0  0  0
 15 14  1  0  0  0  0
 16  2  2  0  0  0  0
 17  3  2  0  0  0  0
 18 15  2  0  0  0  0
  9 19  1  6  0  0  0
 20  4  1  0  0  0  0
  9 21  1  1  0  0  0
 22 15  1  0  0  0  0
  8 23  1  1  0  0  0
  1 24  1  6  0  0  0
 13 11  1  0  0  0  0
 10  5  1  0  0  0  0
  7  2  1  0  0  0  0
M  END
>  <IDNUMBER> (N002-0028)
N002-0028

>  <available> (N002-0028)
2852

>  <H_acceptor> (N002-0028)
5

>  <H_donor> (N002-0028)
1

>  <B_rotN> (N002-0028)
1

>  <N_O> (N002-0028)
5

>  <logP> (N002-0028)
1.303

>  <logD> (N002-0028)
1.458

>  <logSw> (N002-0028)
-2.62

>  <PSA> (N002-0028)
72.83

>  <Chiral_centers> (N002-0028)
6

>  <Name> (N002-0028)
5-hydroxy-5,8-dimethyl-3-methylidene-2-oxo-2H,3H,3aH,4H,4aH,5H,6H,7H,7aH,9aH-azuleno[6,5-b]furan-7-yl acetate

>  <Smile> (N002-0028)
[C@@]12([C@@](\C(=C/C3[C@@H](C(C(O3)=O)=C)C1)\C)([C@H](C[C@]2(O)C)OC(=O)C)[H])[H]

>  <Collection> (N002-0028)
DC

>  <InChI Key> (N002-0028)
UTPGJEROJZHISI-AXUAVVBWSA-N

>  <PERCENTSP3> (N002-0028)
64.7

$$$$

  -ISIS-  -- StrEd -- 

 28 30  0  0  0  0  0  0  0  0999 V2000
    0.4214    1.0026    0.0000 C   0  0  0  0  0  0  0  0  0  0  0  0
    0.4214    0.0262    0.0000 C   0  0  2  0  0  0  0  0  0  0  0  0
    1.2584    1.5083    0.0000 C   0  0  0  0  0  0  0  0  0  0  0  0
   -0.4155   -0.4446    0.0000 C   0  0  2  0  0  0  0  0  0  0  0  0
   -0.4388    1.5083    0.0000 C   0  0  0  0  0  0  0  0  0  0  0  0
   -1.2759    0.0262    0.0000 C   0  0  0  0  0  0  0  0  0  0  0  0
   -1.3048    1.0026    0.0000 O   0  0  0  0  0  0  0  0  0  0  0  0
    2.1245    1.0026    0.0000 O   0  0  0  0  0  0  0  0  0  0  0  0
    2.9904    1.5083    0.0000 C   0  0  0  0  0  0  0  0  0  0  0  0
   -0.4155   -1.4501    0.0000 O   0  0  0  0  0  0  0  0  0  0  0  0
   -1.2759   -1.9268    0.0000 C   0  0  0  0  0  0  0  0  0  0  0  0
    1.2875   -0.4736    0.0000 O   0  0  0  0  0  0  0  0  0  0  0  0
    1.2584    2.5137    0.0000 C   0  0  0  0  0  0  0  0  0  0  0  0
    2.1245    2.9845    0.0000 C   0  0  0  0  0  0  0  0  0  0  0  0
    2.9904    2.5137    0.0000 C   0  0  0  0  0  0  0  0  0  0  0  0
    1.2875   -1.4619    0.0000 C   0  0  0  0  0  0  0  0  0  0  0  0
   -0.4388    2.5137    0.0000 C   0  0  0  0  0  0  0  0  0  0  0  0
   -1.2759   -2.9266    0.0000 O   0  0  0  0  0  0  0  0  0  0  0  0
    3.8565    1.0026    0.0000 O   0  0  0  0  0  0  0  0  0  0  0  0
    0.4214    2.9845    0.0000 C   0  0  0  0  0  0  0  0  0  0  0  0
    0.3808   -1.9268    0.0000 O   0  0  0  0  0  0  0  0  0  0  0  0
   -2.1128   -1.4501    0.0000 C   0  0  0  0  0  0  0  0  0  0  0  0
   -2.1128   -0.4736    0.0000 C   0  0  0  0  0  0  0  0  0  0  0  0
   -2.2523    0.2528    0.0000 C   0  0  0  0  0  0  0  0  0  0  0  0
    2.3744   -2.0663    0.0000 C   0  0  0  0  0  0  0  0  0  0  0  0
   -3.0196   -1.9791    0.0000 C   0  0  0  0  0  0  0  0  0  0  0  0
   -3.0196   -2.9845    0.0000 C   0  0  0  0  0  0  0  0  0  0  0  0
   -3.8565   -1.5200    0.0000 C   0  0  0  0  0  0  0  0  0  0  0  0
  2  1  1  0  0  0  0
  3  1  1  0  0  0  0
  4  2  1  0  0  0  0
  5  1  2  0  0  0  0
  6  7  1  0  0  0  0
  7  5  1  0  0  0  0
  8  3  1  0  0  0  0
  9  8  1  0  0  0  0
  4 10  1  1  0  0  0
 11 10  1  0  0  0  0
  2 12  1  1  0  0  0
 13  3  2  0  0  0  0
 14 13  1  0  0  0  0
 15 14  2  0  0  0  0
 16 12  1  0  0  0  0
 17  5  1  0  0  0  0
 18 11  2  0  0  0  0
 19  9  2  0  0  0  0
 20 17  2  0  0  0  0
 21 16  2  0  0  0  0
 22 11  1  0  0  0  0
  6 23  1  0  0  0  0
 24  6  1  0  0  0  0
 25 16  1  0  0  0  0
 26 22  1  0  0  0  0
 27 26  1  0  0  0  0
 28 26  1  0  0  0  0
 20 13  1  0  0  0  0
  6  4  1  0  0  0  0
  9 15  1  0  0  0  0
M  END
>  <IDNUMBER> (0080-0001)
0080-0001

>  <available> (0080-0001)
393

>  <H_acceptor> (0080-0001)
7

>  <H_donor> (0080-0001)
0

>  <B_rotN> (0080-0001)
6

>  <N_O> (0080-0001)
7

>  <logP> (0080-0001)
3.22

>  <logD> (0080-0001)
3.76

>  <logSw> (0080-0001)
-5.54

>  <PSA> (0080-0001)
88.13

>  <Chiral_centers> (0080-0001)
2

>  <Name> (0080-0001)
10-(acetyloxy)-8,8-dimethyl-2-oxo-2H,8H,9H,10H-pyrano[2,3-h]chromen-9-yl 3-methylbutanoate

>  <Smile> (0080-0001)
CC(CC(OC1C(c2c(OC1(C)C)ccc1c2OC(C=C1)=O)OC(=O)C)=O)C

>  <Collection> (0080-0001)
DC

>  <InChI Key> (0080-0001)
ALKTVPFKDYZFGA-WOJBJXKFSA-N

>  <PERCENTSP3> (0080-0001)
47.6

$$$$

  -ISIS-  -- StrEd -- 

 33 35  0  0  0  0  0  0  0  0999 V2000
   -1.2918   -1.7461    0.0000 C   0  0  0  0  0  0  0  0  0  0  0  0
   -0.4294   -2.2462    0.0000 C   0  0  0  0  0  0  0  0  0  0  0  0
    0.4459   -1.7461    0.0000 C   0  0  0  0  0  0  0  0  0  0  0  0
    0.4459   -0.7459    0.0000 C   0  0  0  0  0  0  0  0  0  0  0  0
   -0.4294   -0.2333    0.0000 O   0  0  0  0  0  0  0  0  0  0  0  0
   -2.1545   -2.2462    0.0000 C   0  0  0  0  0  0  0  0  0  0  0  0
   -1.2918   -0.7459    0.0000 C   0  0  0  0  0  0  0  0  0  0  0  0
   -3.0172   -1.7461    0.0000 C   0  0  0  0  0  0  0  0  0  0  0  0
    1.3127   -0.2542    0.0000 C   0  0  0  0  0  0  0  0  0  0  0  0
   -3.0172   -0.7459    0.0000 C   0  0  0  0  0  0  0  0  0  0  0  0
   -2.1545   -0.2460    0.0000 C   0  0  0  0  0  0  0  0  0  0  0  0
    2.1753    1.2460    0.0000 C   0  0  0  0  0  0  0  0  0  0  0  0
   -3.8882   -2.2462    0.0000 O   0  0  0  0  0  0  0  0  0  0  0  0
    1.3127    0.7459    0.0000 C   0  0  0  0  0  0  0  0  0  0  0  0
    2.1712    2.2462    0.0000 O   0  0  0  0  0  0  0  0  0  0  0  0
   -3.9006   -3.2463    0.0000 C   0  0  0  0  0  0  0  0  0  0  0  0
    1.3000    2.7463    0.0000 C   0  0  0  0  0  0  0  0  0  0  0  0
   -0.4294   -3.2463    0.0000 O   0  0  0  0  0  0  0  0  0  0  0  0
    3.0380    0.7459    0.0000 C   0  0  0  0  0  0  0  0  0  0  0  0
    2.1753   -0.7543    0.0000 C   0  0  0  0  0  0  0  0  0  0  0  0
    1.3086   -2.2462    0.0000 O   0  0  0  0  0  0  0  0  0  0  0  0
   -4.7757   -3.7339    0.0000 O   0  0  0  0  0  0  0  0  0  0  0  0
    1.3000    3.7464    0.0000 O   0  0  0  0  0  0  0  0  0  0  0  0
    3.0380   -0.2583    0.0000 C   0  0  0  0  0  0  0  0  0  0  0  0
   -2.1545   -3.2463    0.0000 O   0  0  0  0  0  0  0  0  0  0  0  0
   -3.8882   -0.2542    0.0000 O   0  0  0  0  0  0  0  0  0  0  0  0
    3.9131    1.2418    0.0000 O   0  0  0  0  0  0  0  0  0  0  0  0
   -3.0380   -3.7464    0.0000 C   0  0  0  0  0  0  0  0  0  0  0  0
    0.4376    2.2462    0.0000 C   0  0  0  0  0  0  0  0  0  0  0  0
    1.3000   -3.2463    0.0000 C   0  0  0  0  0  0  0  0  0  0  0  0
   -1.2918   -3.7464    0.0000 C   0  0  0  0  0  0  0  0  0  0  0  0
   -3.8882    0.7459    0.0000 C   0  0  0  0  0  0  0  0  0  0  0  0
    4.7757    0.7459    0.0000 C   0  0  0  0  0  0  0  0  0  0  0  0
  2  1  1  0  0  0  0
  3  2  1  0  0  0  0
  4  5  1  0  0  0  0
  5  7  1  0  0  0  0
  6  1  2  0  0  0  0
  7  1  1  0  0  0  0
  8  6  1  0  0  0  0
  9  4  1  0  0  0  0
 10 11  1  0  0  0  0
 11  7  2  0  0  0  0
 12 14  2  0  0  0  0
 13  8  1  0  0  0  0
 14  9  1  0  0  0  0
 15 12  1  0  0  0  0
 16 13  1  0  0  0  0
 17 15  1  0  0  0  0
 18  2  2  0  0  0  0
 19 24  2  0  0  0  0
 20  9  2  0  0  0  0
 21  3  1  0  0  0  0
 22 16  2  0  0  0  0
 23 17  2  0  0  0  0
 24 20  1  0  0  0  0
 25  6  1  0  0  0  0
 26 10  1  0  0  0  0
 27 19  1  0  0  0  0
 28 16  1  0  0  0  0
 29 17  1  0  0  0  0
 30 21  1  0  0  0  0
 31 25  1  0  0  0  0
 32 26  1  0  0  0  0
 33 27  1  0  0  0  0
 10  8  2  0  0  0  0
  4  3  2  0  0  0  0
 12 19  1  0  0  0  0
M  END
>  <IDNUMBER> (N105-0119)
N105-0119

>  <available> (N105-0119)
56

>  <H_acceptor> (N105-0119)
10

>  <H_donor> (N105-0119)
0

>  <B_rotN> (N105-0119)
9

>  <N_O> (N105-0119)
10

>  <logP> (N105-0119)
2.12

>  <logD> (N105-0119)
1.4

>  <logSw> (N105-0119)
-2.4

>  <PSA> (N105-0119)
115.82

>  <Chiral_centers> (N105-0119)
0

>  <Name> (N105-0119)
2-[3-(acetyloxy)-4-methoxyphenyl]-3,5,7-trimethoxy-4-oxo-4H-chromen-6-yl acetate

>  <Smile> (N105-0119)
COc1c(cc(C2=C(C(c3c(O2)cc(c(c3OC)OC(=O)C)OC)=O)OC)cc1)OC(=O)C

>  <Collection> (N105-0119)
DC

>  <InChI Key> (N105-0119)
FWZKNPRCZCUJMQ-UHFFFAOYSA-N

>  <PERCENTSP3> (N105-0119)
26.1

$$$$

  -ISIS-  -- StrEd -- 

 16 18  0  0  0  0  0  0  0  0999 V2000
    1.1041   -1.2198    0.0000 N   0  0  0  0  0  0  0  0  0  0  0  0
    0.1699   -0.9152    0.0000 C   0  0  0  0  0  0  0  0  0  0  0  0
    1.6957   -0.4174    0.0000 C   0  0  0  0  0  0  0  0  0  0  0  0
    0.1699    0.0688    0.0000 C   0  0  0  0  0  0  0  0  0  0  0  0
    1.1100    0.3910    0.0000 C   0  0  0  0  0  0  0  0  0  0  0  0
   -0.6823   -1.4160    0.0000 C   0  0  0  0  0  0  0  0  0  0  0  0
   -0.6941    0.5667    0.0000 C   0  0  0  0  0  0  0  0  0  0  0  0
    2.7061   -0.3061    0.0000 C   0  0  0  0  0  0  0  0  0  0  0  0
    3.1220    0.5960    0.0000 N   0  0  0  0  0  0  0  0  0  0  0  0
   -1.5464   -0.9298    0.0000 C   0  0  0  0  0  0  0  0  0  0  0  0
   -1.5609    0.0541    0.0000 C   0  0  0  0  0  0  0  0  0  0  0  0
    2.5245    1.4160    0.0000 C   0  0  0  0  0  0  0  0  0  0  0  0
    1.5258    1.3135    0.0000 C   0  0  0  0  0  0  0  0  0  0  0  0
   -2.4396   -1.4160    0.0000 O   0  0  0  0  0  0  0  0  0  0  0  0
    3.3035   -1.1261    0.0000 C   0  0  0  0  0  0  0  0  0  0  0  0
   -3.3035   -0.9035    0.0000 C   0  0  0  0  0  0  0  0  0  0  0  0
  2  1  1  0  0  0  0
  3  1  1  0  0  0  0
  4  2  2  0  0  0  0
  5  3  1  0  0  0  0
  6  2  1  0  0  0  0
  7  4  1  0  0  0  0
  8  3  2  0  0  0  0
  9  8  1  0  0  0  0
 10  6  2  0  0  0  0
 11 10  1  0  0  0  0
 12  9  2  0  0  0  0
 13  5  2  0  0  0  0
 14 10  1  0  0  0  0
 15  8  1  0  0  0  0
 16 14  1  0  0  0  0
  5  4  1  0  0  0  0
 13 12  1  0  0  0  0
  7 11  2  0  0  0  0
M  END
>  <IDNUMBER> (N036-0105)
N036-0105

>  <available> (N036-0105)
675

>  <H_acceptor> (N036-0105)
1

>  <H_donor> (N036-0105)
1

>  <B_rotN> (N036-0105)
1

>  <N_O> (N036-0105)
3

>  <logP> (N036-0105)
2.92

>  <logD> (N036-0105)
2.97

>  <logSw> (N036-0105)
-2.63

>  <PSA> (N036-0105)
37.91

>  <Chiral_centers> (N036-0105)
0

>  <Name> (N036-0105)
7-methoxy-1-methyl-9H-pyrido[3,4-b]indole

>  <Smile> (N036-0105)
COc1cc2[nH]c3c(c2cc1)cc[nH0]c3C

>  <Collection> (N036-0105)
NC

>  <InChI Key> (N036-0105)
BXNJHAXVSOCGBA-UHFFFAOYSA-N

>  <PERCENTSP3> (N036-0105)
15.4

$$$$

  -ISIS-  -- StrEd -- 

 19 21  0  0  0  0  0  0  0  0999 V2000
   -0.0184   -0.5382    0.0000 C   0  0  0  0  0  0  0  0  0  0  0  0
   -0.8787   -0.0286    0.0000 C   0  0  0  0  0  0  0  0  0  0  0  0
    0.1978   -1.4966    0.0000 O   0  0  0  0  0  0  0  0  0  0  0  0
   -0.8787    0.9665    0.0000 C   0  0  0  0  0  0  0  0  0  0  0  0
    1.1928   -1.6148    0.0000 C   0  0  0  0  0  0  0  0  0  0  0  0
    0.8625   -0.0286    0.0000 C   0  0  0  0  0  0  0  0  0  0  0  0
    1.6046   -0.7136    0.0000 C   0  0  0  0  0  0  0  0  0  0  0  0
   -1.7433   -0.5382    0.0000 C   0  0  0  0  0  0  0  0  0  0  0  0
   -1.7433    1.4761    0.0000 C   0  0  0  0  0  0  0  0  0  0  0  0
   -0.0184    1.4761    0.0000 C   0  0  0  0  0  0  0  0  0  0  0  0
    0.8625    0.9665    0.0000 C   0  0  0  0  0  0  0  0  0  0  0  0
    1.6821   -2.4753    0.0000 O   0  0  0  0  0  0  0  0  0  0  0  0
   -2.6037   -0.0286    0.0000 C   0  0  0  0  0  0  0  0  0  0  0  0
   -2.6037    0.9665    0.0000 C   0  0  0  0  0  0  0  0  0  0  0  0
   -1.7433    2.4753    0.0000 O   0  0  0  0  0  0  0  0  0  0  0  0
   -2.4650   -1.2029    0.0000 O   0  0  0  0  0  0  0  0  0  0  0  0
   -0.8787    1.9859    0.0000 C   0  0  0  0  0  0  0  0  0  0  0  0
    2.6037   -0.5179    0.0000 C   0  0  0  0  0  0  0  0  0  0  0  0
   -1.7799   -1.5170    0.0000 C   0  0  0  0  0  0  0  0  0  0  0  0
  2  1  1  0  0  0  0
  3  1  1  0  0  0  0
  4  2  1  0  0  0  0
  5  3  1  0  0  0  0
  6  1  1  0  0  0  0
  7  6  1  0  0  0  0
  8  2  1  0  0  0  0
  9  4  1  0  0  0  0
 10 11  1  0  0  0  0
 11  6  1  0  0  0  0
 12  5  2  0  0  0  0
 13  8  1  0  0  0  0
 14 13  1  0  0  0  0
 15  9  2  0  0  0  0
  8 16  1  0  0  0  0
  4 17  1  0  0  0  0
  7 18  1  0  0  0  0
 19  8  1  0  0  0  0
  7  5  1  0  0  0  0
 10  4  1  0  0  0  0
  9 14  1  0  0  0  0
M  END
>  <IDNUMBER> (N002-0015)
N002-0015

>  <available> (N002-0015)
308

>  <H_acceptor> (N002-0015)
4

>  <H_donor> (N002-0015)
1

>  <B_rotN> (N002-0015)
1

>  <N_O> (N002-0015)
4

>  <logP> (N002-0015)
1.19

>  <logD> (N002-0015)
0.84

>  <logSw> (N002-0015)
-1.15

>  <PSA> (N002-0015)
63.6

>  <Chiral_centers> (N002-0015)
6

>  <Name> (N002-0015)
9-hydroxy-3,5a,9-trimethyl-dodecahydronaphtho[1,2-b]furan-2,6-dione

>  <Smile> (N002-0015)
CC1(C2C3C(C(C(O3)=O)C)CCC2(C)C(CC1)=O)O

>  <Collection> (N002-0015)
DC

>  <InChI Key> (N002-0015)
SMEJXMYNQKQENF-UHFFFAOYSA-N

>  <PERCENTSP3> (N002-0015)
86.7

$$$$

  -ISIS-  -- StrEd -- 

 15 16  0  0  0  0  0  0  0  0999 V2000
    0.8586   -0.0134    0.0000 C   0  0  0  0  0  0  0  0  0  0  0  0
   -0.0045   -0.5160    0.0000 C   0  0  0  0  0  0  0  0  0  0  0  0
    0.8586    0.9922    0.0000 C   0  0  0  0  0  0  0  0  0  0  0  0
   -0.8720   -0.0134    0.0000 C   0  0  0  0  0  0  0  0  0  0  0  0
   -0.0045    1.4948    0.0000 C   0  0  0  0  0  0  0  0  0  0  0  0
   -0.8720    0.9922    0.0000 C   0  0  0  0  0  0  0  0  0  0  0  0
    2.5982   -0.0134    0.0000 N   0  0  0  0  0  0  0  0  0  0  0  0
    1.7263   -0.5027    0.0000 C   0  0  0  0  0  0  0  0  0  0  0  0
    2.5982    1.0011    0.0000 C   0  0  0  0  0  0  0  0  0  0  0  0
   -1.7351   -0.5160    0.0000 O   0  0  0  0  0  0  0  0  0  0  0  0
   -1.7351    1.4948    0.0000 O   0  0  0  0  0  0  0  0  0  0  0  0
    1.7263    1.4948    0.0000 C   0  0  0  0  0  0  0  0  0  0  0  0
    1.7129   -1.4948    0.0000 C   0  0  0  0  0  0  0  0  0  0  0  0
   -2.5895   -0.0223    0.0000 C   0  0  0  0  0  0  0  0  0  0  0  0
   -2.5982    1.0011    0.0000 C   0  0  0  0  0  0  0  0  0  0  0  0
  2  1  1  0  0  0  0
  3  1  2  0  0  0  0
  4  2  2  0  0  0  0
  5  3  1  0  0  0  0
  6  5  2  0  0  0  0
  7  8  1  0  0  0  0
  8  1  1  0  0  0  0
  9  7  1  0  0  0  0
 10  4  1  0  0  0  0
 11  6  1  0  0  0  0
 12  3  1  0  0  0  0
  8 13  1  0  0  0  0
 14 10  1  0  0  0  0
 15 11  1  0  0  0  0
  9 12  1  0  0  0  0
  4  6  1  0  0  0  0
M  END
>  <IDNUMBER> (N011-0459)
N011-0459

>  <available> (N011-0459)
538

>  <Saltdata> (N011-0459)
HCl

>  <H_acceptor> (N011-0459)
3

>  <H_donor> (N011-0459)
1

>  <B_rotN> (N011-0459)
2

>  <N_O> (N011-0459)
3

>  <logP> (N011-0459)
2.12

>  <logD> (N011-0459)
-0.24

>  <logSw> (N011-0459)
-2.09

>  <PSA> (N011-0459)
30.49

>  <Chiral_centers> (N011-0459)
1

>  <Name> (N011-0459)
6,7-dimethoxy-1-methyl-1,2,3,4-tetrahydroisoquinoline

>  <Smile> (N011-0459)
COc1c(cc2C(NCCc2c1)C)OC

>  <Collection> (N011-0459)
DC

>  <InChI Key> (N011-0459)
HMYJLVDKPJHJCF-UHFFFAOYSA-N

>  <PERCENTSP3> (N011-0459)
50

$$$$

  -ISIS-  -- StrEd -- 

 25 28  0  0  0  0  0  0  0  0999 V2000
   -5.1308    0.7480    0.0000 C   0  0  0  0  0  0  0  0  0  0  0  0
   -5.1308   -0.2541    0.0000 C   0  0  0  0  0  0  0  0  0  0  0  0
   -4.2646   -0.7529    0.0000 C   0  0  0  0  0  0  0  0  0  0  0  0
   -4.2646    1.2521    0.0000 C   0  0  0  0  0  0  0  0  0  0  0  0
   -3.3988    0.7480    0.0000 C   0  0  0  0  0  0  0  0  0  0  0  0
   -3.4031   -0.2541    0.0000 N   0  0  0  0  0  0  0  0  0  0  0  0
   -2.5412   -0.7589    0.0000 C   0  0  0  0  0  0  0  0  0  0  0  0
   -1.6694   -0.2617    0.0000 C   0  0  0  0  0  0  0  0  0  0  0  0
   -1.6653    0.7408    0.0000 C   0  0  0  0  0  0  0  0  0  0  0  0
   -2.5328    1.2460    0.0000 C   0  0  0  0  0  0  0  0  0  0  0  0
   -1.6697    1.7555    0.0000 C   0  0  0  0  0  0  0  0  0  0  0  0
   -0.8086    0.2444    0.0000 C   0  0  0  0  0  0  0  0  0  0  0  0
   -0.8135    1.2466    0.0000 N   0  0  0  0  0  0  0  0  0  0  0  0
    0.0531    1.7555    0.0000 C   0  0  0  0  0  0  0  0  0  0  0  0
    0.9195    1.2521    0.0000 C   0  0  0  0  0  0  0  0  0  0  0  0
    0.9181    0.2493    0.0000 O   0  0  0  0  0  0  0  0  0  0  0  0
    1.7887    1.7546    0.0000 N   0  0  0  0  0  0  0  0  0  0  0  0
    2.6525    1.2521    0.0000 C   0  0  0  0  0  0  0  0  0  0  0  0
    2.7543    0.2597    0.0000 S   0  0  0  0  0  0  0  0  0  0  0  0
    3.5644    1.6588    0.0000 N   0  0  0  0  0  0  0  0  0  0  0  0
    4.2271    0.9154    0.0000 C   0  0  0  0  0  0  0  0  0  0  0  0
    3.7293    0.0558    0.0000 C   0  0  0  0  0  0  0  0  0  0  0  0
   -4.2635   -1.7555    0.0000 O   0  0  0  0  0  0  0  0  0  0  0  0
    4.1356   -0.8551    0.0000 C   0  0  0  0  0  0  0  0  0  0  0  0
    5.1308   -0.8536    0.0000 C   0  0  0  0  0  0  0  0  0  0  0  0
  8 12  1  0  0  0  0
  1  2  2  0  0  0  0
 12 13  1  0  0  0  0
 13 11  1  0  0  0  0
  1  4  1  0  0  0  0
 13 14  1  0  0  0  0
  2  3  1  0  0  0  0
 14 15  1  0  0  0  0
  3  6  1  0  0  0  0
 15 16  2  0  0  0  0
  5  4  2  0  0  0  0
 15 17  1  0  0  0  0
 10  5  1  0  0  0  0
 17 18  1  0  0  0  0
 18 19  1  0  0  0  0
  6  7  1  0  0  0  0
  7  8  1  0  0  0  0
 19 22  1  0  0  0  0
 21 20  1  0  0  0  0
 20 18  2  0  0  0  0
  8  9  1  0  0  0  0
  9 10  1  0  0  0  0
 21 22  2  0  0  0  0
  5  6  1  0  0  0  0
  3 23  2  0  0  0  0
 10 11  1  0  0  0  0
 22 24  1  0  0  0  0
 24 25  1  0  0  0  0
M  END
>  <IDNUMBER> (N099-0011)
N099-0011

>  <available> (N099-0011)
263

>  <H_acceptor> (N099-0011)
5

>  <H_donor> (N099-0011)
1

>  <B_rotN> (N099-0011)
5

>  <N_O> (N099-0011)
6

>  <logP> (N099-0011)
0.87

>  <logD> (N099-0011)
1.41

>  <logSw> (N099-0011)
-1.89

>  <PSA> (N099-0011)
93.78

>  <Chiral_centers> (N099-0011)
2

>  <Name> (N099-0011)
N-(5-ETHYL-1,3-THIAZOL-2-YL)-2-{6-OXO-7,11-DIAZATRICYCLO[7.3.1.0^(2,7)]TRIDECA-2,4-DIEN-11-YL}ACETAMIDE

>  <Smile> (N099-0011)
CCC1SC(NC(CN2CC3c4cccc([nH0]4CC(C3)C2)=O)=O)=NC=1

>  <Collection> (N099-0011)
NC

>  <CLNUMBER> (N099-0011)
CL2236

>  <InChI Key> (N099-0011)
CHYQGJMCBHMDLT-UHFFFAOYSA-N

>  <PERCENTSP3> (N099-0011)
50

$$$$

  -ISIS-  -- StrEd -- 

 32 37  0  0  0  0  0  0  0  0999 V2000
   -0.8495    0.0487    0.0000 C   0  0  2  0  0  0  0  0  0  0  0  0
    0.8292    0.0001    0.0000 C   0  0  1  0  0  0  0  0  0  0  0  0
    0.3902    0.6219    0.0000 C   0  0  0  0  0  0  0  0  0  0  0  0
   -0.8495    0.8373    0.0000 C   0  0  1  0  0  0  0  0  0  0  0  0
    0.6626   -0.7031    0.0000 C   0  0  1  0  0  0  0  0  0  0  0  0
   -0.3902    0.6219    0.0000 C   0  0  0  0  0  0  0  0  0  0  0  0
   -0.6911   -0.6747    0.0000 C   0  0  0  0  0  0  0  0  0  0  0  0
   -1.5811   -0.3048    0.0000 N   0  0  0  0  0  0  0  0  0  0  0  0
    0.6626    1.2477    0.0000 C   0  0  2  0  0  0  0  0  0  0  0  0
   -1.2480   -1.1908    0.0000 C   0  0  2  0  0  0  0  0  0  0  0  0
   -0.1057    1.7640    0.0000 C   0  0  2  0  0  0  0  0  0  0  0  0
    2.6624    1.3169    0.0000 C   0  0  0  0  0  0  0  0  0  0  0  0
   -0.0285   -0.9958    0.0000 C   0  0  0  0  0  0  0  0  0  0  0  0
   -0.6544    1.2681    0.0000 C   0  0  0  0  0  0  0  0  0  0  0  0
   -1.8901   -1.7558    0.0000 C   0  0  0  0  0  0  0  0  0  0  0  0
   -0.0976    2.6217    0.0000 C   0  0  2  0  0  0  0  0  0  0  0  0
    1.4754    1.2477    0.0000 O   0  0  0  0  0  0  0  0  0  0  0  0
   -1.5689    0.2805    0.0000 C   0  0  2  0  0  0  0  0  0  0  0  0
    1.9713    2.1177    0.0000 C   0  0  0  0  0  0  0  0  0  0  0  0
   -1.9713   -0.9552    0.0000 C   0  0  0  0  0  0  0  0  0  0  0  0
    1.5405    0.0001    0.0000 O   0  0  0  0  0  0  0  0  0  0  0  0
    1.5527    3.0728    0.0000 O   0  0  0  0  0  0  0  0  0  0  0  0
   -2.1258   -0.2032    0.0000 C   0  0  0  0  0  0  0  0  0  0  0  0
   -2.6624   -0.5366    0.0000 C   0  0  0  0  0  0  0  0  0  0  0  0
   -1.1218   -1.9144    0.0000 C   0  0  0  0  0  0  0  0  0  0  0  0
   -0.9755    3.1704    0.0000 O   0  0  0  0  0  0  0  0  0  0  0  0
   -1.7274    1.0040    0.0000 O   0  0  0  0  0  0  0  0  0  0  0  0
   -0.1951   -2.2356    0.0000 O   0  0  0  0  0  0  0  0  0  0  0  0
    2.9468    2.1177    0.0000 C   0  0  0  0  0  0  0  0  0  0  0  0
   -1.8332    2.4875    0.0000 C   0  0  0  0  0  0  0  0  0  0  0  0
   -0.0285   -3.1704    0.0000 C   0  0  0  0  0  0  0  0  0  0  0  0
   -2.9468   -1.4430    0.0000 C   0  0  0  0  0  0  0  0  0  0  0  0
  3  2  1  0  0  0  0
  6  3  1  0  0  0  0
  1  4  1  6  0  0  0
  5  4  1  6  0  0  0
  6  1  1  0  0  0  0
  7  1  1  0  0  0  0
  4  8  1  6  0  0  0
  9  3  1  0  0  0  0
 10  7  1  0  0  0  0
 11 14  1  0  0  0  0
  2 12  1  6  0  0  0
 13  7  1  0  0  0  0
 14  6  1  0  0  0  0
 10 15  1  6  0  0  0
 11 16  1  6  0  0  0
  9 17  1  6  0  0  0
 18  1  1  0  0  0  0
 19 17  1  0  0  0  0
 20 23  1  0  0  0  0
  2 21  1  1  0  0  0
 22 19  2  0  0  0  0
 23 18  1  0  0  0  0
 24  8  1  0  0  0  0
 10 25  1  1  0  0  0
 16 26  1  1  0  0  0
 18 27  1  6  0  0  0
 28 25  1  0  0  0  0
 29 19  1  0  0  0  0
 30 26  1  0  0  0  0
 31 28  1  0  0  0  0
 32 24  1  0  0  0  0
  5 13  1  0  0  0  0
  2  5  1  0  0  0  0
 10 20  1  0  0  0  0
 15  8  1  0  0  0  0
  9 11  1  0  0  0  0
 12 16  1  0  0  0  0
M  END
>  <IDNUMBER> (N037-0029)
N037-0029

>  <available> (N037-0029)
274

>  <H_acceptor> (N037-0029)
7

>  <H_donor> (N037-0029)
2

>  <B_rotN> (N037-0029)
8

>  <N_O> (N037-0029)
7

>  <logP> (N037-0029)
-0.35

>  <logD> (N037-0029)
0.68

>  <logSw> (N037-0029)
-4.42

>  <PSA> (N037-0029)
88.46

>  <Chiral_centers> (N037-0029)
12

>  <Name> (N037-0029)
11-ETHYL-8,16-DIHYDROXY-6-METHOXY-13-(METHOXYMETHYL)-11-AZAHEXACYCLO[7.7.2.1^(2,5).0^(1,10).0^(3,8).0^(13,17)]NONADECAN-4-YL ACETATE

>  <Smile> (N037-0029)
CCN1C2C34C(O)CCC(C4CC2C2(O)CC(C4C(C2C3C4)OC(=O)C)OC)(COC)C1

>  <Collection> (N037-0029)
NC

>  <InChI Key> (N037-0029)
ZEBMMHUDQRRILP-SPKGRWLASA-N

>  <PERCENTSP3> (N037-0029)
96

$$$$

  -ISIS-  -- StrEd -- 

 30 33  0  0  0  0  0  0  0  0999 V2000
    1.2329   -0.8810    0.0000 C   0  0  0  0  0  0  0  0  0  0  0  0
    2.1141   -0.3677    0.0000 C   0  0  0  0  0  0  0  0  0  0  0  0
    1.2329   -1.8889    0.0000 C   0  0  0  0  0  0  0  0  0  0  0  0
    2.1141   -2.4024    0.0000 O   0  0  0  0  0  0  0  0  0  0  0  0
    2.9635   -0.8810    0.0000 C   0  0  0  0  0  0  0  0  0  0  0  0
    2.9635   -1.8889    0.0000 C   0  0  0  0  0  0  0  0  0  0  0  0
    0.3772   -0.3677    0.0000 C   0  0  0  0  0  0  0  0  0  0  0  0
    2.1141    0.6401    0.0000 N   0  0  0  0  0  0  0  0  0  0  0  0
   -3.0902   -0.3041    0.0000 C   0  0  0  0  0  0  0  0  0  0  0  0
   -3.0776    0.6846    0.0000 N   0  0  0  0  0  0  0  0  0  0  0  0
   -2.2345   -0.8239    0.0000 C   0  0  0  0  0  0  0  0  0  0  0  0
   -1.3532   -0.3360    0.0000 C   0  0  0  0  0  0  0  0  0  0  0  0
   -0.4723   -0.8810    0.0000 C   0  0  0  0  0  0  0  0  0  0  0  0
    0.3772   -2.4024    0.0000 C   0  0  0  0  0  0  0  0  0  0  0  0
   -3.9714   -0.7924    0.0000 O   0  0  0  0  0  0  0  0  0  0  0  0
   -0.4723   -1.8889    0.0000 C   0  0  0  0  0  0  0  0  0  0  0  0
    3.8192   -0.3360    0.0000 O   0  0  0  0  0  0  0  0  0  0  0  0
    0.3454    0.6401    0.0000 O   0  0  0  0  0  0  0  0  0  0  0  0
    3.9714   -1.8572    0.0000 C   0  0  0  0  0  0  0  0  0  0  0  0
    3.6037   -2.6750    0.0000 C   0  0  0  0  0  0  0  0  0  0  0  0
    1.2646    1.1282    0.0000 C   0  0  0  0  0  0  0  0  0  0  0  0
    2.9635    1.1282    0.0000 C   0  0  0  0  0  0  0  0  0  0  0  0
   -2.2090    1.1412    0.0000 C   0  0  0  0  0  0  0  0  0  0  0  0
   -3.9144    1.2171    0.0000 C   0  0  0  0  0  0  0  0  0  0  0  0
    2.9635    2.1299    0.0000 C   0  0  0  0  0  0  0  0  0  0  0  0
    1.2646    2.1299    0.0000 C   0  0  0  0  0  0  0  0  0  0  0  0
   -2.1584    2.1490    0.0000 C   0  0  0  0  0  0  0  0  0  0  0  0
   -3.8635    2.2186    0.0000 C   0  0  0  0  0  0  0  0  0  0  0  0
    2.1141    2.6179    0.0000 C   0  0  0  0  0  0  0  0  0  0  0  0
   -2.9824    2.6750    0.0000 C   0  0  0  0  0  0  0  0  0  0  0  0
  2  1  1  0  0  0  0
  3  1  2  0  0  0  0
  4  3  1  0  0  0  0
  5  2  1  0  0  0  0
  6  4  1  0  0  0  0
  7  1  1  0  0  0  0
  2  8  1  0  0  0  0
  9 11  1  0  0  0  0
 10  9  1  0  0  0  0
 11 12  2  0  0  0  0
 12 13  1  0  0  0  0
 13  7  2  0  0  0  0
 14  3  1  0  0  0  0
 15  9  2  0  0  0  0
 16 13  1  0  0  0  0
  5 17  1  0  0  0  0
 18  7  1  0  0  0  0
  6 19  1  0  0  0  0
 20  6  1  0  0  0  0
 21  8  1  0  0  0  0
 22  8  1  0  0  0  0
 23 10  1  0  0  0  0
 24 10  1  0  0  0  0
 25 22  1  0  0  0  0
 26 21  1  0  0  0  0
 27 23  1  0  0  0  0
 28 24  1  0  0  0  0
 29 25  1  0  0  0  0
 30 28  1  0  0  0  0
 16 14  2  0  0  0  0
  5  6  1  0  0  0  0
 26 29  1  0  0  0  0
 30 27  1  0  0  0  0
M  END
>  <IDNUMBER> (0080-0053)
0080-0053

>  <available> (0080-0053)
67

>  <H_acceptor> (0080-0053)
5

>  <H_donor> (0080-0053)
2

>  <B_rotN> (0080-0053)
6

>  <N_O> (0080-0053)
6

>  <logP> (0080-0053)
3.15

>  <logD> (0080-0053)
2.83

>  <logSw> (0080-0053)
-4.67

>  <PSA> (0080-0053)
73.24

>  <Chiral_centers> (0080-0053)
2

>  <Name> (0080-0053)
(2E)-3-[3,5-dihydroxy-2,2-dimethyl-4-(piperidin-1-yl)-3,4-dihydro-2H-1-benzopyran-6-yl]-1-(piperidin-1-yl)prop-2-en-1-one

>  <Smile> (0080-0053)
C1CCN(C(C=Cc2c(c3c(OC(C(C3N3CCCCC3)O)(C)C)cc2)O)=O)CC1

>  <Collection> (0080-0053)
DC

>  <InChI Key> (0080-0053)
LTAZBMAAZPCUIX-ZRDIBKRKSA-N

>  <PERCENTSP3> (0080-0053)
62.5

$$$$

  -ISIS-  -- StrEd -- 

 63 70  0  0  0  0  0  0  0  0999 V2000
    5.7541    1.0688    0.0000 C   0  0  0  0  0  0  0  0  0  0  0  0
    3.7742    0.7115    0.0000 C   0  0  0  0  0  0  0  0  0  0  0  0
    5.7541    1.8457    0.0000 C   0  0  0  0  0  0  0  0  0  0  0  0
   -0.6599   -3.6126    0.0000 C   0  0  0  0  0  0  0  0  0  0  0  0
   -1.3679   -4.4718    0.0000 C   0  0  0  0  0  0  0  0  0  0  0  0
    3.7742   -0.0516    0.0000 C   0  0  0  0  0  0  0  0  0  0  0  0
   -5.3004   -4.6025    0.0000 C   0  0  0  0  0  0  0  0  0  0  0  0
   -2.7222   -4.4718    0.0000 C   0  0  0  0  0  0  0  0  0  0  0  0
   -6.7990   -4.6025    0.0000 C   0  0  0  0  0  0  0  0  0  0  0  0
    4.4548    1.0688    0.0000 C   0  0  2  0  0  0  0  0  0  0  0  0
    5.0942    0.7115    0.0000 C   0  0  1  0  0  0  0  0  0  0  0  0
   -4.6541   -3.5508    0.0000 C   0  0  0  0  0  0  0  0  0  0  0  0
   -1.3679   -2.7052    0.0000 O   0  0  0  0  0  0  0  0  0  0  0  0
   -5.3004   -2.5609    0.0000 O   0  0  0  0  0  0  0  0  0  0  0  0
    6.7990    3.0214    0.0000 C   0  0  0  0  0  0  0  0  0  0  0  0
   -0.6599   -1.4884    0.0000 C   0  0  0  0  0  0  0  0  0  0  0  0
   -0.6599   -2.6091    0.0000 O   0  0  0  0  0  0  0  0  0  0  0  0
    6.4692    2.0451    0.0000 C   0  0  2  0  0  0  0  0  0  0  0  0
   -3.3823   -3.6126    0.0000 C   0  0  0  0  0  0  0  0  0  0  0  0
   -7.4589   -3.5508    0.0000 C   0  0  0  0  0  0  0  0  0  0  0  0
   -2.7222   -2.7052    0.0000 C   0  0  0  0  0  0  0  0  0  0  0  0
   -6.7990   -2.5609    0.0000 C   0  0  0  0  0  0  0  0  0  0  0  0
    1.8287   -1.4884    0.0000 C   0  0  0  0  0  0  0  0  0  0  0  0
    1.1893   -0.6426    0.0000 O   0  0  0  0  0  0  0  0  0  0  0  0
    1.1893   -2.2790    0.0000 C   0  0  0  0  0  0  0  0  0  0  0  0
    6.2010    3.7913    0.0000 C   0  0  0  0  0  0  0  0  0  0  0  0
   -0.0482   -2.2790    0.0000 C   0  0  0  0  0  0  0  0  0  0  0  0
   -0.0482   -0.6426    0.0000 C   0  0  0  0  0  0  0  0  0  0  0  0
    6.8126    4.6505    0.0000 C   0  0  0  0  0  0  0  0  0  0  0  0
    6.4692    0.8558    0.0000 C   0  0  0  0  0  0  0  0  0  0  0  0
    5.0942    2.2240    0.0000 C   0  0  0  0  0  0  0  0  0  0  0  0
    3.1005   -0.4160    0.0000 C   0  0  0  0  0  0  0  0  0  0  0  0
    3.1005    1.0688    0.0000 C   0  0  0  0  0  0  0  0  0  0  0  0
    4.4548    1.8457    0.0000 C   0  0  0  0  0  0  0  0  0  0  0  0
    7.7889    4.3207    0.0000 O   0  0  0  0  0  0  0  0  0  0  0  0
    6.8815    1.4541    0.0000 C   0  0  0  0  0  0  0  0  0  0  0  0
    5.0942   -0.0516    0.0000 C   0  0  0  0  0  0  0  0  0  0  0  0
   -4.6541   -1.5366    0.0000 O   0  0  0  0  0  0  0  0  0  0  0  0
    4.4548   -0.4160    0.0000 C   0  0  0  0  0  0  0  0  0  0  0  0
    7.7685    3.3307    0.0000 C   0  0  0  0  0  0  0  0  0  0  0  0
    3.7742    1.4541    0.0000 C   0  0  0  0  0  0  0  0  0  0  0  0
   -2.7427   -1.5366    0.0000 C   0  0  0  0  0  0  0  0  0  0  0  0
    1.8287   -0.4639    0.0000 O   0  0  0  0  0  0  0  0  0  0  0  0
    2.5095   -0.0516    0.0000 C   0  0  0  0  0  0  0  0  0  0  0  0
    6.4967    5.6613    0.0000 O   0  0  0  0  0  0  0  0  0  0  0  0
    5.7541    0.0652    0.0000 O   0  0  0  0  0  0  0  0  0  0  0  0
   -1.3679   -5.2626    0.0000 O   0  0  0  0  0  0  0  0  0  0  0  0
   -5.3004   -5.6613    0.0000 O   0  0  0  0  0  0  0  0  0  0  0  0
    3.7742   -1.0208    0.0000 O   0  0  0  0  0  0  0  0  0  0  0  0
    3.1005    1.8457    0.0000 O   0  0  0  0  0  0  0  0  0  0  0  0
   -2.7222   -3.6951    0.0000 O   0  0  0  0  0  0  0  0  0  0  0  0
   -6.7990   -3.5165    0.0000 O   0  0  0  0  0  0  0  0  0  0  0  0
   -3.3823   -4.6232    0.0000 O   0  0  0  0  0  0  0  0  0  0  0  0
   -7.4589   -4.8019    0.0000 O   0  0  0  0  0  0  0  0  0  0  0  0
    2.5095    0.7115    0.0000 C   0  0  0  0  0  0  0  0  0  0  0  0
    5.7541    2.8357    0.0000 C   0  0  0  0  0  0  0  0  0  0  0  0
   -0.0482   -3.2003    0.0000 O   0  0  0  0  0  0  0  0  0  0  0  0
   -6.7990   -1.5366    0.0000 C   0  0  0  0  0  0  0  0  0  0  0  0
   -7.7889   -0.9111    0.0000 O   0  0  0  0  0  0  0  0  0  0  0  0
   -0.0482    0.2305    0.0000 C   0  0  0  0  0  0  0  0  0  0  0  0
    0.8249   -3.7294    0.0000 C   0  0  0  0  0  0  0  0  0  0  0  0
    4.4548    0.2166    0.0000 H   0  0  0  0  0  0  0  0  0  0  0  0
    5.0942    1.6189    0.0000 H   0  0  0  0  0  0  0  0  0  0  0  0
  2 10  1  0  0  0  0
  3  1  1  0  0  0  0
  4 17  1  0  0  0  0
  5  4  1  0  0  0  0
  6 39  1  0  0  0  0
  7 12  1  0  0  0  0
  8  5  1  0  0  0  0
  9  7  1  0  0  0  0
 10 11  1  0  0  0  0
 11  1  1  0  0  0  0
 12 38  1  0  0  0  0
 13  4  1  0  0  0  0
 14 12  1  0  0  0  0
 18 15  1  6  0  0  0
 16 27  1  0  0  0  0
 16 17  1  0  0  0  0
 18  3  1  0  0  0  0
 19 21  1  0  0  0  0
 20 22  1  0  0  0  0
 21 13  1  0  0  0  0
 22 14  1  0  0  0  0
 23 43  1  0  0  0  0
 24 23  1  0  0  0  0
 25 23  1  0  0  0  0
 26 15  2  0  0  0  0
 27 25  1  0  0  0  0
 28 24  1  0  0  0  0
 29 26  1  0  0  0  0
 30  1  1  0  0  0  0
 31  3  1  0  0  0  0
 32  6  1  0  0  0  0
 33  2  1  0  0  0  0
 34 10  1  0  0  0  0
 35 40  1  0  0  0  0
 36 30  1  0  0  0  0
 37 11  1  0  0  0  0
 38 42  1  0  0  0  0
 39 37  1  0  0  0  0
 40 15  1  0  0  0  0
  2 41  1  0  0  0  0
 21 42  1  0  0  0  0
 44 43  1  0  0  0  0
 44 32  1  0  0  0  0
 45 29  2  0  0  0  0
  1 46  1  0  0  0  0
  5 47  1  0  0  0  0
  7 48  1  0  0  0  0
  6 49  1  0  0  0  0
 50 41  2  0  0  0  0
  8 51  1  0  0  0  0
  9 52  1  0  0  0  0
 19 53  1  0  0  0  0
 20 54  1  0  0  0  0
 55 33  1  0  0  0  0
  3 56  1  0  0  0  0
 27 57  1  0  0  0  0
 22 58  1  0  0  0  0
 59 58  1  0  0  0  0
 28 60  1  0  0  0  0
 61 57  1  0  0  0  0
 10 62  1  6  0  0  0
 11 63  1  1  0  0  0
 18 36  1  0  0  0  0
 34 31  1  0  0  0  0
  6  2  1  0  0  0  0
 44 55  1  0  0  0  0
 35 29  1  0  0  0  0
 16 28  1  0  0  0  0
 19  8  1  0  0  0  0
 20  9  1  0  0  0  0
M  END
>  <IDNUMBER> (0449-0045)
0449-0045

>  <available> (0449-0045)
62

>  <H_acceptor> (0449-0045)
19

>  <H_donor> (0449-0045)
9

>  <B_rotN> (0449-0045)
20

>  <N_O> (0449-0045)
19

>  <logP> (0449-0045)
-1.95

>  <logD> (0449-0045)
-4.74

>  <logSw> (0449-0045)
-3.92

>  <PSA> (0449-0045)
290.05

>  <Chiral_centers> (0449-0045)
22

>  <Name> (0449-0045)
3a,5a-dihydroxy-7-[(4-methoxy-6-methyl-5-{[3,4,5-trihydroxy-6-({[3,4,5-trihydroxy-6-(hydroxymethyl)oxan-2-yl]oxy}methyl)oxan-2-yl]oxy}oxan-2-yl)oxy]-11a-methyl-1-(5-oxo-2,5-dihydrofuran-3-yl)-hexadeca
hydro-1H-cyclopenta[a]phenanthrene-9a-carbaldehyde

>  <Smile> (0449-0045)
COC1C(C(OC(OC2CC3(C(C4C(C5(O)CCC(C5(C)CC4)C4=CC(=O)OC4)CC3)(C=O)CC2)O)C1)C)OC1C(C(O)C(C(O1)COC1C(O)C(C(C(O1)CO)O)O)O)O

>  <Collection> (0449-0045)
DC

>  <InChI Key> (0449-0045)
GILGYKHFZXQALF-KGAXJAOUSA-N

>  <PERCENTSP3> (0449-0045)
90.5

$$$$

  -ISIS-  -- StrEd -- 

 36 39  0  0  0  0  0  0  0  0999 V2000
    0.5139   -0.8841    0.0000 C   0  0  0  0  0  0  0  0  0  0  0  0
    1.3950   -0.3824    0.0000 C   0  0  0  0  0  0  0  0  0  0  0  0
    2.2761   -0.8841    0.0000 C   0  0  0  0  0  0  0  0  0  0  0  0
    0.5139   -1.9119    0.0000 C   0  0  0  0  0  0  0  0  0  0  0  0
    2.2761   -1.9119    0.0000 C   0  0  0  0  0  0  0  0  0  0  0  0
    1.3950   -2.4135    0.0000 O   0  0  0  0  0  0  0  0  0  0  0  0
   -0.3364   -0.3824    0.0000 C   0  0  0  0  0  0  0  0  0  0  0  0
    1.3643    0.6150    0.0000 N   0  0  0  0  0  0  0  0  0  0  0  0
   -3.8607   -0.3273    0.0000 C   0  0  0  0  0  0  0  0  0  0  0  0
   -3.8361    0.6699    0.0000 N   0  0  0  0  0  0  0  0  0  0  0  0
    3.1570   -0.3579    0.0000 O   0  0  0  0  0  0  0  0  0  0  0  0
   -3.0101   -0.8535    0.0000 C   0  0  0  0  0  0  0  0  0  0  0  0
    3.1264    0.6454    0.0000 C   0  0  0  0  0  0  0  0  0  0  0  0
   -2.0986   -0.3579    0.0000 C   0  0  0  0  0  0  0  0  0  0  0  0
   -1.2177   -0.8841    0.0000 C   0  0  0  0  0  0  0  0  0  0  0  0
   -0.3364   -2.4135    0.0000 C   0  0  0  0  0  0  0  0  0  0  0  0
   -4.7722   -0.7985    0.0000 O   0  0  0  0  0  0  0  0  0  0  0  0
    2.5513    0.9943    0.0000 O   0  0  0  0  0  0  0  0  0  0  0  0
   -1.2177   -1.9119    0.0000 C   0  0  0  0  0  0  0  0  0  0  0  0
   -3.7751    2.7012    0.0000 O   0  0  0  0  0  0  0  0  0  0  0  0
    1.3643    2.6094    0.0000 O   0  0  0  0  0  0  0  0  0  0  0  0
    3.9767    1.1719    0.0000 C   0  0  0  0  0  0  0  0  0  0  0  0
   -0.3364    0.6150    0.0000 O   0  0  0  0  0  0  0  0  0  0  0  0
    2.8635   -2.7318    0.0000 C   0  0  0  0  0  0  0  0  0  0  0  0
    3.2731   -1.8263    0.0000 C   0  0  0  0  0  0  0  0  0  0  0  0
    2.2453    1.1104    0.0000 C   0  0  0  0  0  0  0  0  0  0  0  0
    0.5139    1.1104    0.0000 C   0  0  0  0  0  0  0  0  0  0  0  0
   -4.6866    1.2022    0.0000 C   0  0  0  0  0  0  0  0  0  0  0  0
   -2.9550    1.1719    0.0000 C   0  0  0  0  0  0  0  0  0  0  0  0
    2.2761    2.1136    0.0000 C   0  0  0  0  0  0  0  0  0  0  0  0
   -2.9245    2.1690    0.0000 C   0  0  0  0  0  0  0  0  0  0  0  0
   -4.6560    2.1995    0.0000 C   0  0  0  0  0  0  0  0  0  0  0  0
    0.5139    2.1136    0.0000 C   0  0  0  0  0  0  0  0  0  0  0  0
    3.9463    2.1995    0.0000 C   0  0  0  0  0  0  0  0  0  0  0  0
    4.7722    2.7318    0.0000 C   0  0  0  0  0  0  0  0  0  0  0  0
    3.0653    2.6707    0.0000 C   0  0  0  0  0  0  0  0  0  0  0  0
  2  1  1  0  0  0  0
  3  2  1  0  0  0  0
  4  1  2  0  0  0  0
  5  6  1  0  0  0  0
  6  4  1  0  0  0  0
  7  1  1  0  0  0  0
  2  8  1  0  0  0  0
  9 12  1  0  0  0  0
 10  9  1  0  0  0  0
  3 11  1  0  0  0  0
 12 14  2  0  0  0  0
 13 11  1  0  0  0  0
 14 15  1  0  0  0  0
 15  7  2  0  0  0  0
 16  4  1  0  0  0  0
 17  9  2  0  0  0  0
 18 13  2  0  0  0  0
 19 15  1  0  0  0  0
 20 31  1  0  0  0  0
 21 33  1  0  0  0  0
 22 13  1  0  0  0  0
 23  7  1  0  0  0  0
  5 24  1  0  0  0  0
 25  5  1  0  0  0  0
 26  8  1  0  0  0  0
 27  8  1  0  0  0  0
 28 10  1  0  0  0  0
 29 10  1  0  0  0  0
 30 26  1  0  0  0  0
 31 29  1  0  0  0  0
 32 28  1  0  0  0  0
 33 27  1  0  0  0  0
 34 22  1  0  0  0  0
 35 34  1  0  0  0  0
 36 34  1  0  0  0  0
 16 19  2  0  0  0  0
  5  3  1  0  0  0  0
 30 21  1  0  0  0  0
 20 32  1  0  0  0  0
M  END
>  <IDNUMBER> (0080-0033)
0080-0033

>  <available> (0080-0033)
78

>  <H_acceptor> (0080-0033)
8

>  <H_donor> (0080-0033)
1

>  <B_rotN> (0080-0033)
9

>  <N_O> (0080-0033)
9

>  <logP> (0080-0033)
2.44

>  <logD> (0080-0033)
1.95

>  <logSw> (0080-0033)
-0.99

>  <PSA> (0080-0033)
97.77

>  <Chiral_centers> (0080-0033)
2

>  <Name> (0080-0033)
5-hydroxy-2,2-dimethyl-4-(morpholin-4-yl)-6-[(1E)-3-(morpholin-4-yl)-3-oxoprop-1-en-1-yl]-3,4-dihydro-2H-1-benzopyran-3-yl 3-methylbutanoate

>  <Smile> (0080-0033)
CC(CC(OC1C(c2c(c(C=CC(N3CCOCC3)=O)ccc2OC1(C)C)O)N1CCOCC1)=O)C

>  <Collection> (0080-0033)
DC

>  <InChI Key> (0080-0033)
HABFVMRKJUPSNL-SOFGYWHQSA-N

>  <PERCENTSP3> (0080-0033)
63

$$$$

  -ISIS-  -- StrEd -- 

 29 32  0  0  0  0  0  0  0  0999 V2000
    1.5762   -0.8889    0.0000 C   0  0  0  0  0  0  0  0  0  0  0  0
   -0.9516   -0.0178    0.0000 C   0  0  0  0  0  0  0  0  0  0  0  0
   -1.4652    0.8384    0.0000 C   0  0  0  0  0  0  0  0  0  0  0  0
    1.9589   -1.7347    0.0000 O   0  0  0  0  0  0  0  0  0  0  0  0
   -1.4351   -0.8889    0.0000 C   0  0  0  0  0  0  0  0  0  0  0  0
   -0.9718    1.7196    0.0000 C   0  0  0  0  0  0  0  0  0  0  0  0
    0.5842   -0.8837    0.0000 C   0  0  0  0  0  0  0  0  0  0  0  0
    2.5683   -0.8889    0.0000 C   0  0  0  0  0  0  0  0  0  0  0  0
   -2.4675    0.8181    0.0000 C   0  0  0  0  0  0  0  0  0  0  0  0
   -2.4421   -0.9140    0.0000 C   0  0  0  0  0  0  0  0  0  0  0  0
    0.0655   -0.0178    0.0000 O   0  0  0  0  0  0  0  0  0  0  0  0
   -2.9607   -0.0631    0.0000 O   0  0  0  0  0  0  0  0  0  0  0  0
    0.0303    1.7297    0.0000 O   0  0  0  0  0  0  0  0  0  0  0  0
    0.5237    2.6109    0.0000 C   0  0  0  0  0  0  0  0  0  0  0  0
   -0.9164   -1.7551    0.0000 O   0  0  0  0  0  0  0  0  0  0  0  0
   -1.4905    2.5856    0.0000 C   0  0  0  0  0  0  0  0  0  0  0  0
   -0.9969    3.4469    0.0000 C   0  0  0  0  0  0  0  0  0  0  0  0
    0.0051    3.4820    0.0000 C   0  0  0  0  0  0  0  0  0  0  0  0
   -1.4049   -2.6109    0.0000 C   0  0  0  0  0  0  0  0  0  0  0  0
    0.1007   -1.7297    0.0000 O   0  0  0  0  0  0  0  0  0  0  0  0
   -2.9759    1.6793    0.0000 C   0  0  0  0  0  0  0  0  0  0  0  0
    1.5259    2.6259    0.0000 O   0  0  0  0  0  0  0  0  0  0  0  0
   -2.4926    2.5555    0.0000 C   0  0  0  0  0  0  0  0  0  0  0  0
   -2.4018   -2.6362    0.0000 O   0  0  0  0  0  0  0  0  0  0  0  0
    1.1684    0.0176    0.0000 C   0  0  0  0  0  0  0  0  0  0  0  0
    3.4344   -0.4305    0.0000 C   0  0  0  0  0  0  0  0  0  0  0  0
   -1.9034   -1.7701    0.0000 C   0  0  0  0  0  0  0  0  0  0  0  0
   -3.4344   -0.9946    0.0000 C   0  0  0  0  0  0  0  0  0  0  0  0
   -0.8861   -3.4820    0.0000 C   0  0  0  0  0  0  0  0  0  0  0  0
  2 11  1  0  0  0  0
  3  2  1  0  0  0  0
  4  1  1  0  0  0  0
  5  2  1  0  0  0  0
  6  3  1  0  0  0  0
  1  7  1  0  0  0  0
  8  1  1  0  0  0  0
  9  3  2  0  0  0  0
 10  5  1  0  0  0  0
 11  7  1  0  0  0  0
 12 10  1  0  0  0  0
 13  6  1  0  0  0  0
 14 13  1  0  0  0  0
  5 15  1  0  0  0  0
 16  6  2  0  0  0  0
 17 16  1  0  0  0  0
 18 17  2  0  0  0  0
 19 15  1  0  0  0  0
 20  7  2  0  0  0  0
 21  9  1  0  0  0  0
 22 14  2  0  0  0  0
 23 21  2  0  0  0  0
 24 19  2  0  0  0  0
 25  1  1  0  0  0  0
  8 26  1  0  0  0  0
 10 27  1  0  0  0  0
 28 10  1  0  0  0  0
 29 19  1  0  0  0  0
  8  4  1  0  0  0  0
  9 12  1  0  0  0  0
 23 16  1  0  0  0  0
 18 14  1  0  0  0  0
M  END
>  <IDNUMBER> (N005-0005)
N005-0005

>  <available> (N005-0005)
139

>  <H_acceptor> (N005-0005)
8

>  <H_donor> (N005-0005)
0

>  <B_rotN> (N005-0005)
5

>  <N_O> (N005-0005)
8

>  <logP> (N005-0005)
2.23

>  <logD> (N005-0005)
3.1

>  <logSw> (N005-0005)
-4.91

>  <PSA> (N005-0005)
100.66

>  <Chiral_centers> (N005-0005)
4

>  <Name> (N005-0005)
9-(acetyloxy)-8,8-dimethyl-2-oxo-2H,8H,9H,10H-pyrano[2,3-h]chromen-10-yl 2,3-dimethyloxirane-2-carboxylate

>  <Smile> (N005-0005)
CC(OC1C(OC(C2(C)C(O2)C)=O)c2c3OC(=O)C=Cc3ccc2OC1(C)C)=O

>  <Collection> (N005-0005)
DC

>  <InChI Key> (N005-0005)
LNVSQOCOMICZRK-UHFFFAOYSA-N

>  <PERCENTSP3> (N005-0005)
47.6

$$$$

  -ISIS-  -- StrEd -- 

 24 28  0  0  0  0  0  0  0  0999 V2000
   -0.3707    0.6289    0.0000 C   0  0  0  0  0  0  0  0  0  0  0  0
   -0.3707   -0.2541    0.0000 C   0  0  0  0  0  0  0  0  0  0  0  0
    0.3832   -0.6956    0.0000 C   0  0  0  0  0  0  0  0  0  0  0  0
    0.3832    1.0787    0.0000 C   0  0  0  0  0  0  0  0  0  0  0  0
   -1.1414   -0.6956    0.0000 N   0  0  0  0  0  0  0  0  0  0  0  0
   -1.9076    0.6289    0.0000 C   0  0  0  0  0  0  0  0  0  0  0  0
    0.3957    1.9534    0.0000 N   0  0  0  0  0  0  0  0  0  0  0  0
    1.1580   -0.2583    0.0000 C   0  0  0  0  0  0  0  0  0  0  0  0
   -1.9160   -0.2541    0.0000 C   0  0  0  0  0  0  0  0  0  0  0  0
    1.9202   -0.7081    0.0000 C   0  0  0  0  0  0  0  0  0  0  0  0
    1.1580    0.6289    0.0000 C   0  0  0  0  0  0  0  0  0  0  0  0
    1.9409    2.0034    0.0000 C   0  0  0  0  0  0  0  0  0  0  0  0
   -1.0037    1.2662    0.0000 C   0  0  0  0  0  0  0  0  0  0  0  0
   -0.5664    2.0285    0.0000 C   0  0  0  0  0  0  0  0  0  0  0  0
    0.3832   -1.5828    0.0000 C   0  0  0  0  0  0  0  0  0  0  0  0
   -2.6782   -0.6956    0.0000 C   0  0  0  0  0  0  0  0  0  0  0  0
    2.6824   -0.2541    0.0000 C   0  0  0  0  0  0  0  0  0  0  0  0
   -0.3832   -2.0202    0.0000 O   0  0  0  0  0  0  0  0  0  0  0  0
   -2.6782    1.0787    0.0000 C   0  0  0  0  0  0  0  0  0  0  0  0
   -2.6782   -1.5828    0.0000 O   0  0  0  0  0  0  0  0  0  0  0  0
   -3.4446    0.6289    0.0000 C   0  0  0  0  0  0  0  0  0  0  0  0
   -3.4446   -0.2541    0.0000 C   0  0  0  0  0  0  0  0  0  0  0  0
    3.4446   -0.6956    0.0000 C   0  0  0  0  0  0  0  0  0  0  0  0
    1.1414   -2.0285    0.0000 H   0  0  0  0  0  0  0  0  0  0  0  0
  2  1  1  0  0  0  0
  3  2  2  0  0  0  0
  4  1  1  0  0  0  0
  5  2  1  0  0  0  0
  1  6  1  0  0  0  0
  7  4  1  0  0  0  0
  8 11  1  0  0  0  0
  9  6  1  0  0  0  0
 10  8  1  0  0  0  0
 11  4  1  0  0  0  0
 12  7  1  0  0  0  0
 13  1  1  0  0  0  0
 14 13  1  0  0  0  0
 15  3  1  0  0  0  0
 16  9  2  0  0  0  0
 17 10  2  0  0  0  0
 18 15  2  0  0  0  0
 19  6  2  0  0  0  0
 20 16  1  0  0  0  0
 21 19  1  0  0  0  0
 22 21  2  0  0  0  0
 23 17  1  0  0  0  0
 24 15  1  0  0  0  0
 14  7  1  0  0  0  0
  9  5  1  0  0  0  0
  3  8  1  0  0  0  0
 12 10  1  0  0  0  0
 16 22  1  0  0  0  0
M  END
>  <IDNUMBER> (N105-0131)
N105-0131

>  <available> (N105-0131)
154

>  <H_acceptor> (N105-0131)
3

>  <H_donor> (N105-0131)
2

>  <B_rotN> (N105-0131)
2

>  <N_O> (N105-0131)
4

>  <logP> (N105-0131)
1.71

>  <logD> (N105-0131)
-0.97

>  <logSw> (N105-0131)
0.14

>  <PSA> (N105-0131)
52.57

>  <Chiral_centers> (N105-0131)
3

>  <Name> (N105-0131)
12-ETHYLIDENE-6-HYDROXY-8,14-DIAZAPENTACYCLO[9.5.2.0^(1,9).0^(2,7).0^(14,17)]OCTADECA-2(7),3,5,9-TETRAENE-10-CARBALDEHYDE

>  <Smile> (N105-0131)
CC=C1C2C(=C3C4(CCN(C4C2)C1)c1c(N3)c(ccc1)O)C=O

>  <Collection> (N105-0131)
DC

>  <InChI Key> (N105-0131)
JDOFCMASVRMYJU-FUQNDXKWSA-N

>  <PERCENTSP3> (N105-0131)
42.1

$$$$

  -ISIS-  -- StrEd -- 

 41 46  0  0  0  0  0  0  0  0999 V2000
    2.7972    0.2405    0.0000 C   0  0  0  0  0  0  0  0  0  0  0  0
    0.3861   -0.2286    0.0000 C   0  0  0  0  0  0  0  0  0  0  0  0
    2.7972    1.1373    0.0000 C   0  0  0  0  0  0  0  0  0  0  0  0
   -1.9774   -2.8772    0.0000 C   0  0  0  0  0  0  0  0  0  0  0  0
    0.3861   -1.1431    0.0000 C   0  0  0  0  0  0  0  0  0  0  0  0
   -2.7912   -3.8629    0.0000 C   0  0  0  0  0  0  0  0  0  0  0  0
   -4.2877   -3.8629    0.0000 C   0  0  0  0  0  0  0  0  0  0  0  0
    1.1997    0.2405    0.0000 C   0  0  2  0  0  0  0  0  0  0  0  0
    1.9537   -0.2286    0.0000 C   0  0  1  0  0  0  0  0  0  0  0  0
   -2.7912   -1.8380    0.0000 O   0  0  0  0  0  0  0  0  0  0  0  0
    4.0087    2.2536    0.0000 C   0  0  0  0  0  0  0  0  0  0  0  0
    3.6345    1.4105    0.0000 C   0  0  0  0  0  0  0  0  0  0  0  0
   -5.0301   -2.8772    0.0000 C   0  0  0  0  0  0  0  0  0  0  0  0
    3.6226    3.1089    0.0000 C   0  0  0  0  0  0  0  0  0  0  0  0
   -4.2877   -1.8380    0.0000 C   0  0  0  0  0  0  0  0  0  0  0  0
    4.2639    3.7502    0.0000 C   0  0  0  0  0  0  0  0  0  0  0  0
    3.6345   -0.0446    0.0000 C   0  0  0  0  0  0  0  0  0  0  0  0
    1.9537    1.6242    0.0000 C   0  0  0  0  0  0  0  0  0  0  0  0
   -0.4277   -1.5708    0.0000 C   0  0  0  0  0  0  0  0  0  0  0  0
   -0.4277    0.2405    0.0000 C   0  0  0  0  0  0  0  0  0  0  0  0
    1.1997    1.1373    0.0000 C   0  0  0  0  0  0  0  0  0  0  0  0
   -1.9774   -1.6242    0.0000 O   0  0  0  0  0  0  0  0  0  0  0  0
    5.0301    3.3346    0.0000 O   0  0  0  0  0  0  0  0  0  0  0  0
    4.1333    0.6860    0.0000 C   0  0  0  0  0  0  0  0  0  0  0  0
    1.9537   -1.1431    0.0000 C   0  0  0  0  0  0  0  0  0  0  0  0
    1.1997   -1.5708    0.0000 C   0  0  0  0  0  0  0  0  0  0  0  0
    4.9054    2.4201    0.0000 C   0  0  0  0  0  0  0  0  0  0  0  0
    0.3861    0.6860    0.0000 C   0  0  0  0  0  0  0  0  0  0  0  0
   -1.1937   -1.1431    0.0000 C   0  0  0  0  0  0  0  0  0  0  0  0
    3.9195    4.8727    0.0000 O   0  0  0  0  0  0  0  0  0  0  0  0
    2.8090   -0.7275    0.0000 O   0  0  0  0  0  0  0  0  0  0  0  0
   -2.7912   -4.8727    0.0000 O   0  0  0  0  0  0  0  0  0  0  0  0
    0.3861   -2.3663    0.0000 O   0  0  0  0  0  0  0  0  0  0  0  0
   -0.4277    1.1373    0.0000 O   0  0  0  0  0  0  0  0  0  0  0  0
   -4.3054   -4.8488    0.0000 O   0  0  0  0  0  0  0  0  0  0  0  0
   -5.0301   -1.8380    0.0000 O   0  0  0  0  0  0  0  0  0  0  0  0
   -1.1937   -0.2286    0.0000 C   0  0  0  0  0  0  0  0  0  0  0  0
    2.8090    2.0101    0.0000 C   0  0  0  0  0  0  0  0  0  0  0  0
   -4.2580   -2.7526    0.0000 C   0  0  0  0  0  0  0  0  0  0  0  0
    1.1997   -0.7690    0.0000 H   0  0  0  0  0  0  0  0  0  0  0  0
    1.9419    0.8284    0.0000 H   0  0  0  0  0  0  0  0  0  0  0  0
  2  8  1  0  0  0  0
  3  1  1  0  0  0  0
  4 22  1  0  0  0  0
  5 26  1  0  0  0  0
  6  4  1  0  0  0  0
  7  6  1  0  0  0  0
  8  9  1  0  0  0  0
  9  1  1  0  0  0  0
 10  4  1  0  0  0  0
 12 11  1  0  0  0  0
 12  3  1  0  0  0  0
 13 15  1  0  0  0  0
 14 11  2  0  0  0  0
 15 10  1  0  0  0  0
 16 14  1  0  0  0  0
 17  1  1  0  0  0  0
 18  3  1  0  0  0  0
 19  5  1  0  0  0  0
 20  2  1  0  0  0  0
 21  8  1  0  0  0  0
 29 22  1  0  0  0  0
 23 27  1  0  0  0  0
 24 17  1  0  0  0  0
 25  9  1  0  0  0  0
 26 25  1  0  0  0  0
 27 11  1  0  0  0  0
  2 28  1  0  0  0  0
 29 19  1  0  0  0  0
 30 16  2  0  0  0  0
  1 31  1  0  0  0  0
  6 32  1  0  0  0  0
  5 33  1  0  0  0  0
 34 28  2  0  0  0  0
  7 35  1  0  0  0  0
 13 36  1  0  0  0  0
 37 20  1  0  0  0  0
  3 38  1  0  0  0  0
 15 39  1  0  0  0  0
  8 40  1  6  0  0  0
  9 41  1  1  0  0  0
 24 12  1  0  0  0  0
 21 18  1  0  0  0  0
  2  5  1  0  0  0  0
 37 29  1  0  0  0  0
 16 23  1  0  0  0  0
 13  7  1  0  0  0  0
M  END
>  <IDNUMBER> (0449-0127)
0449-0127

>  <available> (0449-0127)
223

>  <H_acceptor> (0449-0127)
10

>  <H_donor> (0449-0127)
5

>  <B_rotN> (0449-0127)
9

>  <N_O> (0449-0127)
10

>  <logP> (0449-0127)
0.37

>  <logD> (0449-0127)
-0.83

>  <logSw> (0449-0127)
-2.28

>  <PSA> (0449-0127)
162.98

>  <Chiral_centers> (0449-0127)
13

>  <Name> (0449-0127)
3a,5a-dihydroxy-11a-methyl-1-(5-oxo-2,5-dihydrofuran-3-yl)-7-[(3,4,5-trihydroxy-6-methyloxan-2-yl)oxy]-hexadecahydro-1H-cyclopenta[a]phenanthrene-9a-carbaldehyde

>  <Smile> (0449-0127)
CC1OC(OC2CC3(C(C4C(C5(O)CCC(C5(C)CC4)C4=CC(OC4)=O)CC3)(CC2)C=O)O)C(C(O)C1O)O

>  <Collection> (0449-0127)
DC

>  <InChI Key> (0449-0127)
HULMNSIAKWANQO-JXZJDKDESA-N

>  <PERCENTSP3> (0449-0127)
86.2

$$$$

  -ISIS-  -- StrEd -- 

 52 58  0  0  0  0  0  0  0  0999 V2000
    3.9537   -0.0224    0.0000 C   0  0  0  0  0  0  0  0  0  0  0  0
    1.7982   -0.4803    0.0000 C   0  0  0  0  0  0  0  0  0  0  0  0
    3.9537    0.7929    0.0000 C   0  0  0  0  0  0  0  0  0  0  0  0
   -3.1105    0.4189    0.0000 C   0  0  0  0  0  0  0  0  0  0  0  0
   -0.3462   -2.8648    0.0000 C   0  0  0  0  0  0  0  0  0  0  0  0
   -3.1105   -2.8648    0.0000 C   0  0  0  0  0  0  0  0  0  0  0  0
   -3.8867    1.3848    0.0000 C   0  0  0  0  0  0  0  0  0  0  0  0
    1.7982   -1.2845    0.0000 C   0  0  0  0  0  0  0  0  0  0  0  0
   -1.0557   -3.7526    0.0000 C   0  0  0  0  0  0  0  0  0  0  0  0
   -2.3957   -3.7526    0.0000 C   0  0  0  0  0  0  0  0  0  0  0  0
   -5.3723    1.3848    0.0000 C   0  0  0  0  0  0  0  0  0  0  0  0
    2.5355   -0.0224    0.0000 C   0  0  2  0  0  0  0  0  0  0  0  0
    3.2444   -0.4803    0.0000 C   0  0  1  0  0  0  0  0  0  0  0  0
   -3.8867   -0.5865    0.0000 O   0  0  0  0  0  0  0  0  0  0  0  0
   -3.1105   -1.3235    0.0000 O   0  0  0  0  0  0  0  0  0  0  0  0
   -1.0557   -1.9433    0.0000 O   0  0  0  0  0  0  0  0  0  0  0  0
    5.0930    1.9603    0.0000 C   0  0  0  0  0  0  0  0  0  0  0  0
    4.7468    1.0331    0.0000 C   0  0  0  0  0  0  0  0  0  0  0  0
   -6.0704    0.4189    0.0000 C   0  0  0  0  0  0  0  0  0  0  0  0
   -5.3723   -0.5865    0.0000 C   0  0  0  0  0  0  0  0  0  0  0  0
   -2.3957   -1.9433    0.0000 C   0  0  0  0  0  0  0  0  0  0  0  0
    4.5177    2.7364    0.0000 C   0  0  0  0  0  0  0  0  0  0  0  0
    5.1209    3.5684    0.0000 C   0  0  0  0  0  0  0  0  0  0  0  0
    4.7468   -0.2904    0.0000 C   0  0  0  0  0  0  0  0  0  0  0  0
    3.2444    1.2061    0.0000 C   0  0  0  0  0  0  0  0  0  0  0  0
    1.0443   -1.6976    0.0000 C   0  0  0  0  0  0  0  0  0  0  0  0
    1.0443   -0.0224    0.0000 C   0  0  0  0  0  0  0  0  0  0  0  0
    2.5355    0.7929    0.0000 C   0  0  0  0  0  0  0  0  0  0  0  0
   -0.3462   -1.7255    0.0000 O   0  0  0  0  0  0  0  0  0  0  0  0
    6.0704    3.2167    0.0000 O   0  0  0  0  0  0  0  0  0  0  0  0
    5.1991    0.3798    0.0000 C   0  0  0  0  0  0  0  0  0  0  0  0
    3.2444   -1.2845    0.0000 C   0  0  0  0  0  0  0  0  0  0  0  0
    2.5355   -1.6976    0.0000 C   0  0  0  0  0  0  0  0  0  0  0  0
    6.0592    2.2392    0.0000 C   0  0  0  0  0  0  0  0  0  0  0  0
    1.7815    0.5361    0.0000 C   0  0  0  0  0  0  0  0  0  0  0  0
    0.3743   -1.2845    0.0000 C   0  0  0  0  0  0  0  0  0  0  0  0
    4.8417    4.5569    0.0000 O   0  0  0  0  0  0  0  0  0  0  0  0
    3.9427   -1.0557    0.0000 O   0  0  0  0  0  0  0  0  0  0  0  0
   -3.8867    2.2561    0.0000 O   0  0  0  0  0  0  0  0  0  0  0  0
   -1.0557   -4.5291    0.0000 O   0  0  0  0  0  0  0  0  0  0  0  0
    1.7982   -2.3845    0.0000 O   0  0  0  0  0  0  0  0  0  0  0  0
    0.9102    1.0219    0.0000 O   0  0  0  0  0  0  0  0  0  0  0  0
   -2.3957   -4.5569    0.0000 O   0  0  0  0  0  0  0  0  0  0  0  0
   -5.3723    0.4466    0.0000 O   0  0  0  0  0  0  0  0  0  0  0  0
   -6.0704    1.8260    0.0000 O   0  0  0  0  0  0  0  0  0  0  0  0
    0.3743   -0.4803    0.0000 C   0  0  0  0  0  0  0  0  0  0  0  0
    3.9427    1.7593    0.0000 C   0  0  0  0  0  0  0  0  0  0  0  0
   -5.3723   -1.4741    0.0000 C   0  0  0  0  0  0  0  0  0  0  0  0
   -4.5848   -1.9658    0.0000 O   0  0  0  0  0  0  0  0  0  0  0  0
   -2.3957   -2.6916    0.0000 C   0  0  0  0  0  0  0  0  0  0  0  0
    2.5355   -0.8265    0.0000 H   0  0  0  0  0  0  0  0  0  0  0  0
    3.2444    0.2680    0.0000 H   0  0  0  0  0  0  0  0  0  0  0  0
  2 12  1  0  0  0  0
  3  1  1  0  0  0  0
  4 15  1  0  0  0  0
  5 29  1  0  0  0  0
  6 21  1  0  0  0  0
  7  4  1  0  0  0  0
  8 33  1  0  0  0  0
  9  5  1  0  0  0  0
 10  9  1  0  0  0  0
 11  7  1  0  0  0  0
 12 13  1  0  0  0  0
 13  1  1  0  0  0  0
 14  4  1  0  0  0  0
  6 15  1  0  0  0  0
 16  5  1  0  0  0  0
 18 17  1  0  0  0  0
 18  3  1  0  0  0  0
 19 20  1  0  0  0  0
 20 14  1  0  0  0  0
 21 16  1  0  0  0  0
 22 17  2  0  0  0  0
 23 22  1  0  0  0  0
 24  1  1  0  0  0  0
 25  3  1  0  0  0  0
 26  8  1  0  0  0  0
 27  2  1  0  0  0  0
 28 12  1  0  0  0  0
 36 29  1  0  0  0  0
 30 34  1  0  0  0  0
 31 24  1  0  0  0  0
 32 13  1  0  0  0  0
 33 32  1  0  0  0  0
 34 17  1  0  0  0  0
  2 35  1  0  0  0  0
 36 26  1  0  0  0  0
 37 23  2  0  0  0  0
  1 38  1  0  0  0  0
  7 39  1  0  0  0  0
  9 40  1  0  0  0  0
  8 41  1  0  0  0  0
 42 35  2  0  0  0  0
 10 43  1  0  0  0  0
 11 44  1  0  0  0  0
 19 45  1  0  0  0  0
 46 27  1  0  0  0  0
  3 47  1  0  0  0  0
 20 48  1  0  0  0  0
 49 48  1  0  0  0  0
 21 50  1  0  0  0  0
 12 51  1  6  0  0  0
 13 52  1  1  0  0  0
 31 18  1  0  0  0  0
 25 28  1  0  0  0  0
  2  8  1  0  0  0  0
 46 36  1  0  0  0  0
 23 30  1  0  0  0  0
  6 10  1  0  0  0  0
 19 11  1  0  0  0  0
M  END
>  <IDNUMBER> (0449-0129)
0449-0129

>  <available> (0449-0129)
224

>  <H_acceptor> (0449-0129)
15

>  <H_donor> (0449-0129)
8

>  <B_rotN> (0449-0129)
15

>  <N_O> (0449-0129)
15

>  <logP> (0449-0129)
-1.37

>  <logD> (0449-0129)
-3.52

>  <logSw> (0449-0129)
2.03

>  <PSA> (0449-0129)
242.13

>  <Chiral_centers> (0449-0129)
18

>  <Name> (0449-0129)
7-[(3,4-dihydroxy-6-methyl-5-{[3,4,5-trihydroxy-6-(hydroxymethyl)oxan-2-yl]oxy}oxan-2-yl)oxy]-3a,5a-dihydroxy-11a-methyl-1-(5-oxo-2,5-dihydrofuran-3-yl)-hexadecahydro-1H-cyclopenta[a]phenanthrene-9a-c
arbaldehyde

>  <Smile> (0449-0129)
CC1C(C(C(C(OC2CC3(C(C4C(C5(O)CCC(C5(C)CC4)C4=CC(OC4)=O)CC3)(CC2)C=O)O)O1)O)O)OC1C(C(O)C(C(O1)CO)O)O

>  <Collection> (0449-0129)
DC

>  <InChI Key> (0449-0129)
CAYUJEAJKPLCAV-WLHZZPNHSA-N

>  <PERCENTSP3> (0449-0129)
88.6

$$$$

  -ISIS-  -- StrEd -- 

 22 26  0  0  0  0  0  0  0  0999 V2000
   -0.4765    0.4454    0.0000 C   0  0  0  0  0  0  0  0  0  0  0  0
    0.0490   -0.2762    0.0000 C   0  0  0  0  0  0  0  0  0  0  0  0
    0.9606   -0.2762    0.0000 C   0  0  0  0  0  0  0  0  0  0  0  0
    0.2123    1.0510    0.0000 C   0  0  0  0  0  0  0  0  0  0  0  0
   -0.4765   -1.0511    0.0000 N   0  0  0  0  0  0  0  0  0  0  0  0
   -0.1439    1.8854    0.0000 N   0  0  0  0  0  0  0  0  0  0  0  0
    1.6018    0.2464    0.0000 C   0  0  0  0  0  0  0  0  0  0  0  0
    2.5015    0.2464    0.0000 C   0  0  0  0  0  0  0  0  0  0  0  0
   -1.3614    0.1662    0.0000 C   0  0  0  0  0  0  0  0  0  0  0  0
    1.1476    1.0510    0.0000 C   0  0  0  0  0  0  0  0  0  0  0  0
   -1.3614   -0.7750    0.0000 C   0  0  0  0  0  0  0  0  0  0  0  0
    2.8786    1.1371    0.0000 C   0  0  0  0  0  0  0  0  0  0  0  0
   -1.2545    0.9145    0.0000 C   0  0  0  0  0  0  0  0  0  0  0  0
   -1.0346    1.8260    0.0000 C   0  0  0  0  0  0  0  0  0  0  0  0
    1.4593   -1.0511    0.0000 C   0  0  0  0  0  0  0  0  0  0  0  0
    2.9439   -0.5255    0.0000 C   0  0  0  0  0  0  0  0  0  0  0  0
    1.0466   -1.8854    0.0000 O   0  0  0  0  0  0  0  0  0  0  0  0
   -2.1660    0.6383    0.0000 C   0  0  0  0  0  0  0  0  0  0  0  0
   -2.1660   -1.2234    0.0000 C   0  0  0  0  0  0  0  0  0  0  0  0
    2.4866   -1.3005    0.0000 C   0  0  0  0  0  0  0  0  0  0  0  0
   -2.9439    0.1662    0.0000 C   0  0  0  0  0  0  0  0  0  0  0  0
   -2.9439   -0.7512    0.0000 C   0  0  0  0  0  0  0  0  0  0  0  0
  2  1  1  0  0  0  0
  3  2  2  0  0  0  0
  4  1  1  0  0  0  0
  5  2  1  0  0  0  0
  6  4  1  0  0  0  0
  7 10  1  0  0  0  0
  8  7  1  0  0  0  0
  1  9  1  0  0  0  0
 10  4  1  0  0  0  0
 11  9  2  0  0  0  0
 12  6  1  0  0  0  0
 13  1  1  0  0  0  0
 14 13  1  0  0  0  0
 15  3  1  0  0  0  0
 16  8  2  0  0  0  0
 17 15  2  0  0  0  0
 18  9  1  0  0  0  0
 19 11  1  0  0  0  0
 20 16  1  0  0  0  0
 21 18  2  0  0  0  0
 22 21  1  0  0  0  0
  6 14  1  0  0  0  0
  5 11  1  0  0  0  0
  7  3  1  0  0  0  0
  8 12  1  0  0  0  0
 22 19  2  0  0  0  0
M  END
>  <IDNUMBER> (N039-0003)
N039-0003

>  <available> (N039-0003)
429

>  <Saltdata> (N039-0003)
HCl

>  <H_acceptor> (N039-0003)
2

>  <H_donor> (N039-0003)
1

>  <B_rotN> (N039-0003)
1

>  <N_O> (N039-0003)
3

>  <logP> (N039-0003)
1.97

>  <logD> (N039-0003)
2.3

>  <logSw> (N039-0003)
-2.75

>  <PSA> (N039-0003)
32.34

>  <Chiral_centers> (N039-0003)
3

>  <Name> (N039-0003)
(12E)-12-ETHYLIDENE-8,14-DIAZAPENTACYCLO[9.5.2.0^(1,9).0^(2,7).0^(14,17)]OCTADECA-2(7),3,5,9-TETRAENE-10-CARBALDEHYDE

>  <Smile> (N039-0003)
c1cc2NC3C4(CCN5C4CC(C=3C=O)C(C5)=CC)c2cc1

>  <Collection> (N039-0003)
DC

>  <InChI Key> (N039-0003)
VFUITWPFKLGEQA-OIXVIMQBSA-N

>  <PERCENTSP3> (N039-0003)
42.1

$$$$

  -ISIS-  -- StrEd -- 

 33 36  0  0  0  0  0  0  0  0999 V2000
   -0.0022   -1.5578    0.0000 C   0  0  0  0  0  0  0  0  0  0  0  0
    0.8557   -1.0743    0.0000 C   0  0  0  0  0  0  0  0  0  0  0  0
    1.7259   -1.5578    0.0000 C   0  0  0  0  0  0  0  0  0  0  0  0
   -0.0022   -2.5587    0.0000 C   0  0  0  0  0  0  0  0  0  0  0  0
    1.7259   -2.5587    0.0000 C   0  0  0  0  0  0  0  0  0  0  0  0
    0.8557   -3.0631    0.0000 O   0  0  0  0  0  0  0  0  0  0  0  0
   -0.8599   -1.0743    0.0000 C   0  0  0  0  0  0  0  0  0  0  0  0
    0.8557   -0.0567    0.0000 N   0  0  0  0  0  0  0  0  0  0  0  0
   -3.4625    0.4310    0.0000 C   0  0  0  0  0  0  0  0  0  0  0  0
   -3.4625    1.4401    0.0000 N   0  0  0  0  0  0  0  0  0  0  0  0
   -2.6048   -0.0567    0.0000 C   0  0  0  0  0  0  0  0  0  0  0  0
    2.6006   -1.0743    0.0000 O   0  0  0  0  0  0  0  0  0  0  0  0
   -2.6048   -1.0743    0.0000 C   0  0  0  0  0  0  0  0  0  0  0  0
   -1.7259   -1.5578    0.0000 C   0  0  0  0  0  0  0  0  0  0  0  0
    3.4583   -1.5578    0.0000 C   0  0  0  0  0  0  0  0  0  0  0  0
   -0.8599   -3.0631    0.0000 C   0  0  0  0  0  0  0  0  0  0  0  0
   -4.3287   -0.0567    0.0000 O   0  0  0  0  0  0  0  0  0  0  0  0
    4.3287   -1.0743    0.0000 O   0  0  0  0  0  0  0  0  0  0  0  0
   -1.7259   -2.5587    0.0000 C   0  0  0  0  0  0  0  0  0  0  0  0
    0.8557    1.9530    0.0000 O   0  0  0  0  0  0  0  0  0  0  0  0
   -3.4625    3.4372    0.0000 O   0  0  0  0  0  0  0  0  0  0  0  0
   -0.8599   -0.0567    0.0000 O   0  0  0  0  0  0  0  0  0  0  0  0
    2.7350   -2.5587    0.0000 C   0  0  0  0  0  0  0  0  0  0  0  0
    2.2263   -3.4372    0.0000 C   0  0  0  0  0  0  0  0  0  0  0  0
   -0.0022    0.4477    0.0000 C   0  0  0  0  0  0  0  0  0  0  0  0
    1.7259    0.4477    0.0000 C   0  0  0  0  0  0  0  0  0  0  0  0
   -4.3287    1.9319    0.0000 C   0  0  0  0  0  0  0  0  0  0  0  0
   -2.6048    1.9319    0.0000 C   0  0  0  0  0  0  0  0  0  0  0  0
    3.4583   -2.5670    0.0000 C   0  0  0  0  0  0  0  0  0  0  0  0
    1.7259    1.4401    0.0000 C   0  0  0  0  0  0  0  0  0  0  0  0
   -2.6048    2.9411    0.0000 C   0  0  0  0  0  0  0  0  0  0  0  0
   -4.3287    2.9411    0.0000 C   0  0  0  0  0  0  0  0  0  0  0  0
   -0.0022    1.4401    0.0000 C   0  0  0  0  0  0  0  0  0  0  0  0
  2  1  1  0  0  0  0
  3  2  1  0  0  0  0
  4  1  2  0  0  0  0
  5  6  1  0  0  0  0
  6  4  1  0  0  0  0
  7  1  1  0  0  0  0
  2  8  1  0  0  0  0
  9 11  1  0  0  0  0
 10  9  1  0  0  0  0
 11 13  2  0  0  0  0
  3 12  1  0  0  0  0
 13 14  1  0  0  0  0
 14  7  2  0  0  0  0
 15 12  1  0  0  0  0
 16  4  1  0  0  0  0
 17  9  2  0  0  0  0
 18 15  2  0  0  0  0
 19 14  1  0  0  0  0
 20 30  1  0  0  0  0
 21 31  1  0  0  0  0
 22  7  1  0  0  0  0
  5 23  1  0  0  0  0
 24  5  1  0  0  0  0
 25  8  1  0  0  0  0
 26  8  1  0  0  0  0
 27 10  1  0  0  0  0
 28 10  1  0  0  0  0
 29 15  1  0  0  0  0
 30 26  1  0  0  0  0
 31 28  1  0  0  0  0
 32 27  1  0  0  0  0
 33 25  1  0  0  0  0
 19 16  2  0  0  0  0
  5  3  1  0  0  0  0
 20 33  1  0  0  0  0
 21 32  1  0  0  0  0
M  END
>  <IDNUMBER> (N021-0003)
N021-0003

>  <available> (N021-0003)
461

>  <H_acceptor> (N021-0003)
8

>  <H_donor> (N021-0003)
1

>  <B_rotN> (N021-0003)
7

>  <N_O> (N021-0003)
9

>  <logP> (N021-0003)
1.07

>  <logD> (N021-0003)
-1.66

>  <logSw> (N021-0003)
-0.12

>  <PSA> (N021-0003)
97.77

>  <Chiral_centers> (N021-0003)
2

>  <Name> (N021-0003)
5-hydroxy-2,2-dimethyl-4-(morpholin-4-yl)-6-[(1E)-3-(morpholin-4-yl)-3-oxoprop-1-en-1-yl]-3,4-dihydro-2H-1-benzopyran-3-yl acetate

>  <Smile> (N021-0003)
C1OCCN(C2c3c(c(C=CC(N4CCOCC4)=O)ccc3OC(C2OC(=O)C)(C)C)O)C1

>  <Collection> (N021-0003)
DC

>  <InChI Key> (N021-0003)
HGDOEHXCRQGKOA-FNORWQNLSA-N

>  <PERCENTSP3> (N021-0003)
58.3

$$$$

  -ISIS-  -- StrEd -- 

 16 18  0  0  0  0  0  0  0  0999 V2000
    0.2286   -0.5884    0.0000 N   0  0  0  0  0  0  0  0  0  0  0  0
    1.1325   -0.0850    0.0000 C   0  0  0  0  0  0  0  0  0  0  0  0
    1.1325    0.9855    0.0000 N   0  0  0  0  0  0  0  0  0  0  0  0
   -0.2712   -1.4391    0.0000 C   0  0  0  0  0  0  0  0  0  0  0  0
   -0.6363   -0.0850    0.0000 C   0  0  0  0  0  0  0  0  0  0  0  0
   -0.6363    0.9536    0.0000 C   0  0  0  0  0  0  0  0  0  0  0  0
    0.2286    1.4888    0.0000 C   0  0  0  0  0  0  0  0  0  0  0  0
   -1.1468   -0.9003    0.0000 O   0  0  0  0  0  0  0  0  0  0  0  0
   -0.5017   -2.4671    0.0000 C   0  0  0  0  0  0  0  0  0  0  0  0
   -1.9479   -1.5916    0.0000 C   0  0  0  0  0  0  0  0  0  0  0  0
   -1.5047   -2.5274    0.0000 C   0  0  0  0  0  0  0  0  0  0  0  0
   -1.5295   -1.7369    0.0000 O   0  0  0  0  0  0  0  0  0  0  0  0
    2.0258   -0.6451    0.0000 O   0  0  0  0  0  0  0  0  0  0  0  0
   -2.0258   -0.8755    0.0000 C   0  0  0  0  0  0  0  0  0  0  0  0
    0.2286    2.5274    0.0000 O   0  0  0  0  0  0  0  0  0  0  0  0
   -1.5047    1.5242    0.0000 C   0  0  0  0  0  0  0  0  0  0  0  0
  2  1  1  0  0  0  0
  3  2  1  0  0  0  0
  4  1  1  0  0  0  0
  5  1  1  0  0  0  0
  6  5  2  0  0  0  0
  7  6  1  0  0  0  0
  8  4  1  0  0  0  0
  9  4  1  0  0  0  0
 10  8  1  0  0  0  0
 11  9  1  0  0  0  0
 12 11  1  0  0  0  0
 13  2  2  0  0  0  0
 14 10  1  0  0  0  0
 15  7  2  0  0  0  0
 16  6  1  0  0  0  0
  7  3  1  0  0  0  0
 11 10  1  0  0  0  0
 12 14  1  0  0  0  0
M  END
>  <IDNUMBER> (1544-0040)
1544-0040

>  <available> (1544-0040)
31

>  <H_acceptor> (1544-0040)
6

>  <H_donor> (1544-0040)
1

>  <B_rotN> (1544-0040)
1

>  <N_O> (1544-0040)
6

>  <logP> (1544-0040)
0.18

>  <logD> (1544-0040)
0.13

>  <logSw> (1544-0040)
-2.23

>  <PSA> (1544-0040)
67.87

>  <Chiral_centers> (1544-0040)
3

>  <Name> (1544-0040)
1-{2,6-dioxabicyclo[3.2.0]heptan-3-yl}-5-methyl-1,2,3,4-tetrahydropyrimidine-2,4-dione

>  <Smile> (1544-0040)
Cc1c[nH0](C2OC3COC3C2)c(=O)[nH]c1=O

>  <Collection> (1544-0040)
DC

>  <InChI Key> (1544-0040)
OAWLMYIJZBBZTP-UHFFFAOYSA-N

>  <PERCENTSP3> (1544-0040)
60

$$$$

  -ISIS-  -- StrEd -- 

 17 19  0  0  0  0  0  0  0  0999 V2000
    0.0989   -1.0036    0.0000 N   0  0  0  0  0  0  0  0  0  0  0  0
    0.9755    0.4998    0.0000 C   0  0  0  0  0  0  0  0  0  0  0  0
    0.9755   -0.4999    0.0000 C   0  0  0  0  0  0  0  0  0  0  0  0
    0.0989    1.0035    0.0000 C   0  0  0  0  0  0  0  0  0  0  0  0
   -0.7629   -0.4999    0.0000 C   0  0  0  0  0  0  0  0  0  0  0  0
   -0.7629    0.4998    0.0000 C   0  0  0  0  0  0  0  0  0  0  0  0
    1.9231   -0.8059    0.0000 O   0  0  0  0  0  0  0  0  0  0  0  0
    1.9231    0.8058    0.0000 C   0  0  0  0  0  0  0  0  0  0  0  0
    2.4976   -0.0187    0.0000 C   0  0  0  0  0  0  0  0  0  0  0  0
   -1.6209   -1.0036    0.0000 C   0  0  0  0  0  0  0  0  0  0  0  0
    0.0989    2.0069    0.0000 O   0  0  0  0  0  0  0  0  0  0  0  0
   -1.6209    1.0035    0.0000 C   0  0  0  0  0  0  0  0  0  0  0  0
   -1.6209   -2.0071    0.0000 O   0  0  0  0  0  0  0  0  0  0  0  0
   -2.4976    0.4998    0.0000 C   0  0  0  0  0  0  0  0  0  0  0  0
   -2.4976   -0.4999    0.0000 C   0  0  0  0  0  0  0  0  0  0  0  0
   -0.7629    2.5069    0.0000 C   0  0  0  0  0  0  0  0  0  0  0  0
   -2.4826   -2.5069    0.0000 C   0  0  0  0  0  0  0  0  0  0  0  0
  2  3  1  0  0  0  0
  3  1  2  0  0  0  0
  4  6  1  0  0  0  0
  5  1  1  0  0  0  0
  6  5  2  0  0  0  0
  7  3  1  0  0  0  0
  8  2  1  0  0  0  0
  9  7  1  0  0  0  0
 10  5  1  0  0  0  0
 11  4  1  0  0  0  0
 12  6  1  0  0  0  0
 13 10  1  0  0  0  0
 14 15  1  0  0  0  0
 15 10  2  0  0  0  0
 16 11  1  0  0  0  0
 17 13  1  0  0  0  0
  2  4  2  0  0  0  0
  9  8  2  0  0  0  0
 14 12  2  0  0  0  0
M  END
>  <IDNUMBER> (N038-0009)
N038-0009

>  <available> (N038-0009)
617

>  <H_acceptor> (N038-0009)
5

>  <H_donor> (N038-0009)
0

>  <B_rotN> (N038-0009)
4

>  <N_O> (N038-0009)
4

>  <logP> (N038-0009)
3.86

>  <logD> (N038-0009)
3.86

>  <logSw> (N038-0009)
-4.5

>  <PSA> (N038-0009)
43.86

>  <Chiral_centers> (N038-0009)
0

>  <Name> (N038-0009)
4,8-dimethoxyfuro[2,3-b]quinoline

>  <Smile> (N038-0009)
n1c2c(c(c3c1c(OC)ccc3)OC)cco2

>  <Collection> (N038-0009)
NC

>  <InChI Key> (N038-0009)
KFBCTNNQFGONHB-UHFFFAOYSA-N

>  <PERCENTSP3> (N038-0009)
15.3846

$$$$

  -ISIS-  -- StrEd -- 

 17 18  0  0  0  0  0  0  0  0999 V2000
    1.3024    0.0062    0.0000 C   0  0  0  0  0  0  0  0  0  0  0  0
    3.0325    0.0187    0.0000 C   0  0  0  0  0  0  0  0  0  0  0  0
    0.4314    0.4981    0.0000 C   0  0  0  0  0  0  0  0  0  0  0  0
    2.1653    0.5064    0.0000 C   0  0  0  0  0  0  0  0  0  0  0  0
   -0.4231   -0.0062    0.0000 C   0  0  0  0  0  0  0  0  0  0  0  0
   -0.4231   -1.0065    0.0000 C   0  0  0  0  0  0  0  0  0  0  0  0
    1.3024   -1.0024    0.0000 C   0  0  0  0  0  0  0  0  0  0  0  0
    3.0406   -0.9816    0.0000 O   0  0  0  0  0  0  0  0  0  0  0  0
   -1.2943   -1.5068    0.0000 C   0  0  0  0  0  0  0  0  0  0  0  0
    0.4398   -1.5068    0.0000 C   0  0  0  0  0  0  0  0  0  0  0  0
   -1.2943    0.4940    0.0000 C   0  0  0  0  0  0  0  0  0  0  0  0
   -2.1569   -1.0065    0.0000 C   0  0  0  0  0  0  0  0  0  0  0  0
    3.8951    0.5230    0.0000 O   0  0  0  0  0  0  0  0  0  0  0  0
   -2.1569   -0.0062    0.0000 C   0  0  0  0  0  0  0  0  0  0  0  0
   -3.0322   -1.5068    0.0000 O   0  0  0  0  0  0  0  0  0  0  0  0
    2.1572    1.5068    0.0000 C   0  0  0  0  0  0  0  0  0  0  0  0
   -3.8951   -1.0065    0.0000 C   0  0  0  0  0  0  0  0  0  0  0  0
  2  4  1  0  0  0  0
  3  1  2  0  0  0  0
  4  1  1  0  0  0  0
  5  3  1  0  0  0  0
  6 10  1  0  0  0  0
  7  1  1  0  0  0  0
  8  2  2  0  0  0  0
  9  6  2  0  0  0  0
 10  7  2  0  0  0  0
 11  5  2  0  0  0  0
 12  9  1  0  0  0  0
 13  2  1  0  0  0  0
 14 11  1  0  0  0  0
 15 12  1  0  0  0  0
 16  4  1  0  0  0  0
 17 15  1  0  0  0  0
  5  6  1  0  0  0  0
 14 12  2  0  0  0  0
M  END
>  <IDNUMBER> (N105-0125)
N105-0125

>  <available> (N105-0125)
4

>  <H_acceptor> (N105-0125)
3

>  <H_donor> (N105-0125)
1

>  <B_rotN> (N105-0125)
3

>  <N_O> (N105-0125)
3

>  <logP> (N105-0125)
2.88

>  <logD> (N105-0125)
0.35

>  <logSw> (N105-0125)
-3.33

>  <PSA> (N105-0125)
46.53

>  <Chiral_centers> (N105-0125)
1

>  <Name> (N105-0125)
2-(6-methoxy-2-naphthyl)propanoic acid

>  <Smile> (N105-0125)
c1(cc2c(cc(cc2)OC)cc1)C(C(=O)O)C

>  <Collection> (N105-0125)
NC

>  <InChI Key> (N105-0125)
CMWTZPSULFXXJA-UHFFFAOYSA-N

>  <PERCENTSP3> (N105-0125)
21.4286

$$$$

  -ISIS-  -- StrEd -- 

 28 30  0  0  0  0  0  0  0  0999 V2000
   -0.3701    1.3084    0.0000 C   0  0  0  0  0  0  0  0  0  0  0  0
   -0.3701    0.3590    0.0000 C   0  0  2  0  0  0  0  0  0  0  0  0
    0.4437    1.8001    0.0000 C   0  0  0  0  0  0  0  0  0  0  0  0
   -1.1840   -0.0989    0.0000 C   0  0  2  0  0  0  0  0  0  0  0  0
   -1.2068    1.8001    0.0000 C   0  0  0  0  0  0  0  0  0  0  0  0
   -2.0205    0.3590    0.0000 C   0  0  0  0  0  0  0  0  0  0  0  0
   -2.0486    1.3084    0.0000 O   0  0  0  0  0  0  0  0  0  0  0  0
    0.4720   -0.1215    0.0000 O   0  0  0  0  0  0  0  0  0  0  0  0
    1.2857    1.3084    0.0000 O   0  0  0  0  0  0  0  0  0  0  0  0
    0.4720   -1.0879    0.0000 C   0  0  0  0  0  0  0  0  0  0  0  0
    2.1222    1.8001    0.0000 C   0  0  0  0  0  0  0  0  0  0  0  0
    0.4437    2.7778    0.0000 C   0  0  0  0  0  0  0  0  0  0  0  0
   -1.1840   -1.0710    0.0000 O   0  0  0  0  0  0  0  0  0  0  0  0
    1.2857    3.2355    0.0000 C   0  0  0  0  0  0  0  0  0  0  0  0
    1.5288   -1.6756    0.0000 C   0  0  0  0  0  0  0  0  0  0  0  0
    2.1222    2.7778    0.0000 C   0  0  0  0  0  0  0  0  0  0  0  0
   -2.0205   -1.5400    0.0000 C   0  0  0  0  0  0  0  0  0  0  0  0
   -1.2068    2.7778    0.0000 C   0  0  0  0  0  0  0  0  0  0  0  0
   -0.4097   -1.5400    0.0000 O   0  0  0  0  0  0  0  0  0  0  0  0
    2.9699    1.3084    0.0000 O   0  0  0  0  0  0  0  0  0  0  0  0
   -0.3701    3.2355    0.0000 C   0  0  0  0  0  0  0  0  0  0  0  0
   -2.0205   -2.5121    0.0000 O   0  0  0  0  0  0  0  0  0  0  0  0
    1.5061   -2.8117    0.0000 C   0  0  0  0  0  0  0  0  0  0  0  0
   -2.8342   -0.1215    0.0000 C   0  0  0  0  0  0  0  0  0  0  0  0
   -2.9699    0.5793    0.0000 C   0  0  0  0  0  0  0  0  0  0  0  0
    2.7326   -1.1164    0.0000 C   0  0  0  0  0  0  0  0  0  0  0  0
   -2.8342   -1.0710    0.0000 C   0  0  0  0  0  0  0  0  0  0  0  0
    2.7326   -3.2355    0.0000 C   0  0  0  0  0  0  0  0  0  0  0  0
  2  1  1  0  0  0  0
  3  1  1  0  0  0  0
  4  2  1  0  0  0  0
  5  1  2  0  0  0  0
  6  7  1  0  0  0  0
  7  5  1  0  0  0  0
  2  8  1  1  0  0  0
  9  3  1  0  0  0  0
 10  8  1  0  0  0  0
 11  9  1  0  0  0  0
 12  3  2  0  0  0  0
  4 13  1  1  0  0  0
 14 12  1  0  0  0  0
 15 10  1  0  0  0  0
 16 14  2  0  0  0  0
 17 13  1  0  0  0  0
 18  5  1  0  0  0  0
 19 10  2  0  0  0  0
 20 11  2  0  0  0  0
 21 18  2  0  0  0  0
 22 17  2  0  0  0  0
 23 15  2  0  0  0  0
  6 24  1  0  0  0  0
 25  6  1  0  0  0  0
 26 15  1  0  0  0  0
 27 17  1  0  0  0  0
 28 23  1  0  0  0  0
 21 12  1  0  0  0  0
  6  4  1  0  0  0  0
 11 16  1  0  0  0  0
M  END
>  <IDNUMBER> (0080-0002)
0080-0002

>  <available> (0080-0002)
3299

>  <H_acceptor> (0080-0002)
7

>  <H_donor> (0080-0002)
0

>  <B_rotN> (0080-0002)
5

>  <N_O> (0080-0002)
7

>  <logP> (0080-0002)
3.4

>  <logD> (0080-0002)
2.95

>  <logSw> (0080-0002)
-6.07

>  <PSA> (0080-0002)
88.13

>  <Chiral_centers> (0080-0002)
2

>  <Name> (0080-0002)
9-(acetyloxy)-8,8-dimethyl-2-oxo-2H,8H,9H,10H-pyrano[2,3-h]chromen-10-yl (2E)-2-methylbut-2-enoate

>  <Smile> (0080-0002)
CC=C(C(OC1c2c(OC(C1OC(=O)C)(C)C)ccc1c2OC(C=C1)=O)=O)C

>  <Collection> (0080-0002)
DC

>  <InChI Key> (0080-0002)
LYUZYPKZQDYMEE-CCGSVPMNSA-N

>  <PERCENTSP3> (0080-0002)
38.1

$$$$

  -ISIS-  -- StrEd -- 

 19 21  0  0  0  0  0  0  0  0999 V2000
   -0.8803    0.0138    0.0000 C   0  0  0  0  0  0  0  0  0  0  0  0
   -0.0116   -0.4991    0.0000 C   0  0  0  0  0  0  0  0  0  0  0  0
   -0.8803    1.0121    0.0000 C   0  0  0  0  0  0  0  0  0  0  0  0
    0.1872   -1.4741    0.0000 O   0  0  0  0  0  0  0  0  0  0  0  0
    1.1668   -1.5850    0.0000 C   0  0  0  0  0  0  0  0  0  0  0  0
    0.8526   -0.0047    0.0000 C   0  0  0  0  0  0  0  0  0  0  0  0
    1.5873   -0.6977    0.0000 C   0  0  0  0  0  0  0  0  0  0  0  0
   -1.7168   -0.4991    0.0000 C   0  0  0  0  0  0  0  0  0  0  0  0
   -0.0116    1.4973    0.0000 C   0  0  0  0  0  0  0  0  0  0  0  0
    0.8526    1.0121    0.0000 C   0  0  0  0  0  0  0  0  0  0  0  0
   -1.7168    1.4973    0.0000 C   0  0  0  0  0  0  0  0  0  0  0  0
    1.6705   -2.4954    0.0000 O   0  0  0  0  0  0  0  0  0  0  0  0
   -2.5855   -0.0047    0.0000 C   0  0  0  0  0  0  0  0  0  0  0  0
   -0.8803   -1.0028    0.0000 O   0  0  0  0  0  0  0  0  0  0  0  0
   -1.7168   -1.4972    0.0000 C   0  0  0  0  0  0  0  0  0  0  0  0
   -2.5855    1.0121    0.0000 C   0  0  0  0  0  0  0  0  0  0  0  0
   -0.8803    2.0102    0.0000 C   0  0  0  0  0  0  0  0  0  0  0  0
   -1.7168    2.4954    0.0000 O   0  0  0  0  0  0  0  0  0  0  0  0
    2.5855   -0.5406    0.0000 C   0  0  0  0  0  0  0  0  0  0  0  0
  2  1  1  0  0  0  0
  3  1  1  0  0  0  0
  4  2  1  0  0  0  0
  5  4  1  0  0  0  0
  6  2  1  0  0  0  0
  7  6  1  0  0  0  0
  8  1  1  0  0  0  0
  9  3  1  0  0  0  0
 10  9  1  0  0  0  0
 11  3  1  0  0  0  0
 12  5  2  0  0  0  0
 13  8  1  0  0  0  0
  1 14  1  0  0  0  0
 15  8  2  0  0  0  0
 16 13  1  0  0  0  0
  3 17  1  0  0  0  0
 11 18  1  0  0  0  0
  7 19  1  0  0  0  0
 11 16  1  0  0  0  0
  6 10  1  0  0  0  0
  7  5  1  0  0  0  0
M  END
>  <IDNUMBER> (0115-0003)
0115-0003

>  <available> (0115-0003)
3181

>  <H_acceptor> (0115-0003)
4

>  <H_donor> (0115-0003)
2

>  <B_rotN> (0115-0003)
2

>  <N_O> (0115-0003)
4

>  <logP> (0115-0003)
1.57

>  <logD> (0115-0003)
0.76

>  <logSw> (0115-0003)
-0.96

>  <PSA> (0115-0003)
66.76

>  <Chiral_centers> (0115-0003)
6

>  <Name> (0115-0003)
6,9a-dihydroxy-3,5a-dimethyl-9-methylidene-dodecahydronaphtho[1,2-b]furan-2-one

>  <Smile> (0115-0003)
CC1C(OC2C3(O)C(CCC(C3(CCC12)C)O)=C)=O

>  <Collection> (0115-0003)
DC

>  <InChI Key> (0115-0003)
CJLHTKGWEUGORV-UHFFFAOYSA-N

>  <PERCENTSP3> (0115-0003)
80

$$$$

  -ISIS-  -- StrEd -- 

 12 13  0  0  0  0  0  0  0  0999 V2000
    1.2927   -0.0132    0.0000 C   0  0  0  0  0  0  0  0  0  0  0  0
    0.4233    0.5023    0.0000 C   0  0  0  0  0  0  0  0  0  0  0  0
    1.2927   -0.9991    0.0000 C   0  0  0  0  0  0  0  0  0  0  0  0
    0.4233   -1.4958    0.0000 N   0  0  0  0  0  0  0  0  0  0  0  0
   -0.4422   -0.0056    0.0000 C   0  0  0  0  0  0  0  0  0  0  0  0
   -0.4422   -1.0067    0.0000 C   0  0  0  0  0  0  0  0  0  0  0  0
    2.1770   -1.4958    0.0000 O   0  0  0  0  0  0  0  0  0  0  0  0
    0.4233    1.4958    0.0000 O   0  0  0  0  0  0  0  0  0  0  0  0
   -1.3114    0.5023    0.0000 C   0  0  0  0  0  0  0  0  0  0  0  0
   -1.3114   -1.4958    0.0000 C   0  0  0  0  0  0  0  0  0  0  0  0
   -2.1770   -0.0132    0.0000 C   0  0  0  0  0  0  0  0  0  0  0  0
   -2.1770   -0.9991    0.0000 C   0  0  0  0  0  0  0  0  0  0  0  0
  2  1  2  0  0  0  0
  3  1  1  0  0  0  0
  4  3  1  0  0  0  0
  5  2  1  0  0  0  0
  6  4  1  0  0  0  0
  7  3  2  0  0  0  0
  8  2  1  0  0  0  0
  9  5  1  0  0  0  0
 10  6  1  0  0  0  0
 11  9  2  0  0  0  0
 12 10  2  0  0  0  0
  5  6  2  0  0  0  0
 12 11  1  0  0  0  0
M  END
>  <IDNUMBER> (1481-0011)
1481-0011

>  <available> (1481-0011)
172

>  <H_acceptor> (1481-0011)
3

>  <H_donor> (1481-0011)
2

>  <B_rotN> (1481-0011)
1

>  <N_O> (1481-0011)
3

>  <logP> (1481-0011)
1.45

>  <logD> (1481-0011)
-0.05

>  <logSw> (1481-0011)
-0.98

>  <PSA> (1481-0011)
49.33

>  <Chiral_centers> (1481-0011)
0

>  <Name> (1481-0011)
4-hydroxy-1,2-dihydroquinolin-2-one

>  <Smile> (1481-0011)
c1cc2[nH]c(cc(O)c2cc1)=O

>  <Collection> (1481-0011)
DC

>  <InChI Key> (1481-0011)
HDHQZCHIXUUSMK-UHFFFAOYSA-N

>  <PERCENTSP3> (1481-0011)
0

$$$$

  -ISIS-  -- StrEd -- 

 18 19  0  0  0  0  0  0  0  0999 V2000
    0.8955    0.5131    0.0000 C   0  0  0  0  0  0  0  0  0  0  0  0
    0.0330    1.0041    0.0000 C   0  0  0  0  0  0  0  0  0  0  0  0
    0.8955   -0.4974    0.0000 C   0  0  0  0  0  0  0  0  0  0  0  0
    0.0330   -0.9884    0.0000 N   0  0  0  0  0  0  0  0  0  0  0  0
   -0.8420    0.4974    0.0000 C   0  0  0  0  0  0  0  0  0  0  0  0
   -0.8420   -0.4974    0.0000 C   0  0  0  0  0  0  0  0  0  0  0  0
    1.7391    1.0356    0.0000 C   0  0  0  0  0  0  0  0  0  0  0  0
    1.7705   -1.0261    0.0000 O   0  0  0  0  0  0  0  0  0  0  0  0
   -1.6981   -0.9884    0.0000 C   0  0  0  0  0  0  0  0  0  0  0  0
    1.7328    2.0617    0.0000 O   0  0  0  0  0  0  0  0  0  0  0  0
    0.0330    2.0082    0.0000 O   0  0  0  0  0  0  0  0  0  0  0  0
    2.5574    0.4974    0.0000 O   0  0  0  0  0  0  0  0  0  0  0  0
   -1.6981    1.0041    0.0000 C   0  0  0  0  0  0  0  0  0  0  0  0
   -1.6981   -2.0082    0.0000 O   0  0  0  0  0  0  0  0  0  0  0  0
   -2.5574    0.5131    0.0000 C   0  0  0  0  0  0  0  0  0  0  0  0
   -2.5574   -0.4974    0.0000 C   0  0  0  0  0  0  0  0  0  0  0  0
    0.8955    2.4993    0.0000 C   0  0  0  0  0  0  0  0  0  0  0  0
   -0.8420   -2.4993    0.0000 C   0  0  0  0  0  0  0  0  0  0  0  0
  2  1  2  0  0  0  0
  3  1  1  0  0  0  0
  4  3  1  0  0  0  0
  5  2  1  0  0  0  0
  6  4  1  0  0  0  0
  7  1  1  0  0  0  0
  8  3  2  0  0  0  0
  9  6  1  0  0  0  0
 10  7  2  0  0  0  0
 11  2  1  0  0  0  0
 12  7  1  0  0  0  0
 13  5  1  0  0  0  0
 14  9  1  0  0  0  0
 15 13  2  0  0  0  0
 16  9  2  0  0  0  0
 17 11  1  0  0  0  0
 18 14  1  0  0  0  0
  6  5  2  0  0  0  0
 16 15  1  0  0  0  0
M  END
>  <IDNUMBER> (N038-0002)
N038-0002

>  <available> (N038-0002)
300

>  <H_acceptor> (N038-0002)
5

>  <H_donor> (N038-0002)
2

>  <B_rotN> (N038-0002)
4

>  <N_O> (N038-0002)
6

>  <logP> (N038-0002)
1.42

>  <logD> (N038-0002)
-1.83965

>  <logSw> (N038-0002)
0.87402

>  <PSA> (N038-0002)
84.86

>  <Chiral_centers> (N038-0002)
0

>  <Name> (N038-0002)
4,8-dimethoxy-2-oxo-1,2-dihydroquinoline-3-carboxylic acid

>  <Smile> (N038-0002)
c1(c(c2cccc(c2[nH]c1=O)OC)OC)C(=O)O

>  <Collection> (N038-0002)
NC

>  <InChI Key> (N038-0002)
FNXGDPWXITYSJO-UHFFFAOYSA-N

>  <PERCENTSP3> (N038-0002)
16.7

$$$$

  -ISIS-  -- StrEd -- 

 29 32  0  0  0  0  0  0  0  0999 V2000
    1.4921   -0.1921    0.0000 C   0  0  0  0  0  0  0  0  0  0  0  0
   -1.1037   -1.7020    0.0000 C   0  0  0  0  0  0  0  0  0  0  0  0
    2.4155    0.0853    0.0000 C   0  0  1  0  0  0  0  0  0  0  0  0
   -0.2595   -1.1987    0.0000 C   0  0  0  0  0  0  0  0  0  0  0  0
    0.6281   -1.7020    0.0000 C   0  0  0  0  0  0  0  0  0  0  0  0
    1.4921   -1.2186    0.0000 C   0  0  0  0  0  0  0  0  0  0  0  0
   -0.2595   -0.1921    0.0000 C   0  0  0  0  0  0  0  0  0  0  0  0
   -1.1037   -2.7125    0.0000 C   0  0  0  0  0  0  0  0  0  0  0  0
    0.6281    0.2834    0.0000 C   0  0  0  0  0  0  0  0  0  0  0  0
   -1.9717   -1.1987    0.0000 C   0  0  0  0  0  0  0  0  0  0  0  0
    2.7007    1.0283    0.0000 C   0  0  0  0  0  0  0  0  0  0  0  0
   -1.9717   -3.2041    0.0000 C   0  0  0  0  0  0  0  0  0  0  0  0
    3.0058   -0.6755    0.0000 C   0  0  0  0  0  0  0  0  0  0  0  0
    2.4432   -1.5039    0.0000 C   0  0  0  0  0  0  0  0  0  0  0  0
    0.6281   -2.7125    0.0000 C   0  0  0  0  0  0  0  0  0  0  0  0
   -2.8276   -1.7020    0.0000 C   0  0  0  0  0  0  0  0  0  0  0  0
   -2.8276   -2.7125    0.0000 C   0  0  0  0  0  0  0  0  0  0  0  0
   -0.2595   -3.2041    0.0000 C   0  0  0  0  0  0  0  0  0  0  0  0
    0.3587    2.2451    0.0000 C   0  0  0  0  0  0  0  0  0  0  0  0
   -1.0957    0.3231    0.0000 O   0  0  0  0  0  0  0  0  0  0  0  0
    2.0151    1.7498    0.0000 C   0  0  0  0  0  0  0  0  0  0  0  0
    3.6716    1.2266    0.0000 O   0  0  0  0  0  0  0  0  0  0  0  0
    1.0442    1.5318    0.0000 O   0  0  0  0  0  0  0  0  0  0  0  0
    0.5608    3.2041    0.0000 O   0  0  0  0  0  0  0  0  0  0  0  0
   -3.6716   -3.2041    0.0000 O   0  0  0  0  0  0  0  0  0  0  0  0
    3.6716    0.6004    0.0000 O   0  0  0  0  0  0  0  0  0  0  0  0
    1.4921    0.7510    0.0000 C   0  0  0  0  0  0  0  0  0  0  0  0
   -1.1037   -0.8382    0.0000 C   0  0  0  0  0  0  0  0  0  0  0  0
   -0.6203    2.0628    0.0000 C   0  0  0  0  0  0  0  0  0  0  0  0
  4  2  1  0  0  0  0
  3  1  1  0  0  0  0
  4  7  1  0  0  0  0
  6  5  1  0  0  0  0
  6  1  1  0  0  0  0
  7  9  1  0  0  0  0
  8  2  1  0  0  0  0
  9  1  1  0  0  0  0
 10  2  1  0  0  0  0
 11  3  1  0  0  0  0
 12  8  2  0  0  0  0
 13  3  1  0  0  0  0
 14  6  1  0  0  0  0
 15  5  1  0  0  0  0
 16 10  2  0  0  0  0
 17 16  1  0  0  0  0
 18 15  1  0  0  0  0
 19 23  1  0  0  0  0
 20  7  2  0  0  0  0
 21 11  1  0  0  0  0
 22 11  2  0  0  0  0
 23 21  1  0  0  0  0
 24 19  2  0  0  0  0
 25 17  2  0  0  0  0
  3 26  1  6  0  0  0
  1 27  1  0  0  0  0
  2 28  1  0  0  0  0
 29 19  1  0  0  0  0
 13 14  1  0  0  0  0
  5  4  1  0  0  0  0
  8 18  1  0  0  0  0
 17 12  1  0  0  0  0
M  END
>  <IDNUMBER> (N050-0019)
N050-0019

>  <available> (N050-0019)
176

>  <H_acceptor> (N050-0019)
6

>  <H_donor> (N050-0019)
1

>  <B_rotN> (N050-0019)
5

>  <N_O> (N050-0019)
6

>  <logP> (N050-0019)
0.96

>  <logD> (N050-0019)
2.21

>  <logSw> (N050-0019)
-4.62

>  <PSA> (N050-0019)
97.74

>  <Chiral_centers> (N050-0019)
6

>  <Name> (N050-0019)
2-{1-hydroxy-9a,11a-dimethyl-7,10-dioxo-1H,2H,3H,3aH,3bH,4H,5H,7H,9aH,9bH,10H,11H,11aH-cyclopenta[a]phenanthren-1-yl}-2-oxoethyl acetate

>  <Smile> (N050-0019)
CC(OCC(C1(C2(C)CC(C3C4(C)C(CCC3C2CC1)=CC(C=C4)=O)=O)O)=O)=O

>  <Collection> (N050-0019)
DC

>  <InChI Key> (N050-0019)
MOVRKLZUVNCBIP-JIQBUDPMSA-N

>  <PERCENTSP3> (N050-0019)
65.2

$$$$

  -ISIS-  -- StrEd -- 

 13 15  0  0  0  0  0  0  0  0999 V2000
    0.1062   -1.0003    0.0000 N   0  0  0  0  0  0  0  0  0  0  0  0
    0.9722   -0.5011    0.0000 C   0  0  0  0  0  0  0  0  0  0  0  0
    0.9722    0.4911    0.0000 N   0  0  0  0  0  0  0  0  0  0  0  0
   -0.7697   -0.5011    0.0000 C   0  0  0  0  0  0  0  0  0  0  0  0
   -0.7697    0.4991    0.0000 C   0  0  0  0  0  0  0  0  0  0  0  0
    0.1062    1.0003    0.0000 C   0  0  0  0  0  0  0  0  0  0  0  0
    1.9244    0.8078    0.0000 C   0  0  0  0  0  0  0  0  0  0  0  0
    1.9244   -0.8078    0.0000 C   0  0  0  0  0  0  0  0  0  0  0  0
   -1.6357    1.0003    0.0000 C   0  0  0  0  0  0  0  0  0  0  0  0
    2.5017    0.0100    0.0000 C   0  0  0  0  0  0  0  0  0  0  0  0
   -1.6357   -1.0003    0.0000 C   0  0  0  0  0  0  0  0  0  0  0  0
   -2.5017    0.4911    0.0000 C   0  0  0  0  0  0  0  0  0  0  0  0
   -2.5017   -0.5011    0.0000 C   0  0  0  0  0  0  0  0  0  0  0  0
  2  1  2  0  0  0  0
  3  2  1  0  0  0  0
  4  1  1  0  0  0  0
  5  4  2  0  0  0  0
  6  5  1  0  0  0  0
  7  3  1  0  0  0  0
  8  2  1  0  0  0  0
  9  5  1  0  0  0  0
 10  8  1  0  0  0  0
 11  4  1  0  0  0  0
 12 13  1  0  0  0  0
 13 11  2  0  0  0  0
  6  3  1  0  0  0  0
 10  7  1  0  0  0  0
 12  9  2  0  0  0  0
M  END
>  <IDNUMBER> (N042-0045)
N042-0045

>  <available> (N042-0045)
657

>  <Saltdata> (N042-0045)
HCl

>  <H_acceptor> (N042-0045)
1

>  <H_donor> (N042-0045)
0

>  <B_rotN> (N042-0045)
0

>  <N_O> (N042-0045)
2

>  <logP> (N042-0045)
1.95

>  <logD> (N042-0045)
2.91

>  <logSw> (N042-0045)
-2.31

>  <PSA> (N042-0045)
15.6

>  <Chiral_centers> (N042-0045)
0

>  <Name> (N042-0045)
1H,2H,3H,9H-pyrrolo[2,1-b]quinazoline

>  <Smile> (N042-0045)
c1cc2N=C3N(Cc2cc1)CCC3

>  <Collection> (N042-0045)
NC

>  <InChI Key> (N042-0045)
WUFQLZTXIWKION-UHFFFAOYSA-N

>  <PERCENTSP3> (N042-0045)
36.4

$$$$

  -ISIS-  -- StrEd -- 

 31 35  0  0  0  0  0  0  0  0999 V2000
    0.9026   -0.6880    0.0000 C   0  0  0  0  0  0  0  0  0  0  0  0
   -1.7008   -1.2004    0.0000 C   0  0  0  0  0  0  0  0  0  0  0  0
    0.8728    0.3128    0.0000 C   0  0  0  0  0  0  0  0  0  0  0  0
   -1.7008   -2.2013    0.0000 C   0  0  0  0  0  0  0  0  0  0  0  0
   -0.8429   -0.6880    0.0000 C   0  0  2  0  0  0  0  0  0  0  0  0
    0.0446   -1.1767    0.0000 C   0  0  1  0  0  0  0  0  0  0  0  0
    2.4992    1.3435    0.0000 C   0  0  0  0  0  0  0  0  0  0  0  0
    1.8139    0.6283    0.0000 C   0  0  0  0  0  0  0  0  0  0  0  0
    3.4464    1.6293    0.0000 C   0  0  0  0  0  0  0  0  0  0  0  0
    3.4761    2.6302    0.0000 C   0  0  0  0  0  0  0  0  0  0  0  0
    1.8437   -0.9739    0.0000 C   0  0  0  0  0  0  0  0  0  0  0  0
    0.0150    0.8013    0.0000 C   0  0  0  0  0  0  0  0  0  0  0  0
   -2.5588   -0.6880    0.0000 C   0  0  0  0  0  0  0  0  0  0  0  0
   -0.8728    0.2829    0.0000 C   0  0  0  0  0  0  0  0  0  0  0  0
   -2.5588   -2.7197    0.0000 C   0  0  0  0  0  0  0  0  0  0  0  0
    2.5588    2.9458    0.0000 O   0  0  0  0  0  0  0  0  0  0  0  0
    2.3860   -0.1757    0.0000 C   0  0  0  0  0  0  0  0  0  0  0  0
    0.0446   -2.2013    0.0000 C   0  0  0  0  0  0  0  0  0  0  0  0
   -0.8429   -2.7197    0.0000 C   0  0  0  0  0  0  0  0  0  0  0  0
    1.9570    2.1715    0.0000 C   0  0  0  0  0  0  0  0  0  0  0  0
   -1.6711   -0.1996    0.0000 C   0  0  0  0  0  0  0  0  0  0  0  0
    4.2744    3.2022    0.0000 O   0  0  0  0  0  0  0  0  0  0  0  0
    0.9561   -1.7307    0.0000 O   0  0  0  0  0  0  0  0  0  0  0  0
   -1.7008   -3.2022    0.0000 O   0  0  0  0  0  0  0  0  0  0  0  0
   -2.4039    0.3844    0.0000 O   0  0  0  0  0  0  0  0  0  0  0  0
   -3.4164   -2.2013    0.0000 C   0  0  1  0  0  0  0  0  0  0  0  0
    0.7835    1.2838    0.0000 C   0  0  0  0  0  0  0  0  0  0  0  0
   -3.4164   -1.1767    0.0000 C   0  0  0  0  0  0  0  0  0  0  0  0
   -4.2744   -2.7492    0.0000 O   0  0  0  0  0  0  0  0  0  0  0  0
    0.0565    0.0268    0.0000 H   0  0  0  0  0  0  0  0  0  0  0  0
   -0.8429   -1.6175    0.0000 H   0  0  0  0  0  0  0  0  0  0  0  0
  2  5  1  0  0  0  0
  3  1  1  0  0  0  0
  4 19  1  0  0  0  0
  5  6  1  0  0  0  0
  6  1  1  0  0  0  0
  8  7  1  0  0  0  0
  8  3  1  0  0  0  0
  9  7  2  0  0  0  0
 10  9  1  0  0  0  0
 11  1  1  0  0  0  0
 12  3  1  0  0  0  0
 13  2  1  0  0  0  0
 14  5  1  0  0  0  0
 15  4  1  0  0  0  0
 16 20  1  0  0  0  0
 17 11  1  0  0  0  0
 18  6  1  0  0  0  0
 19 18  1  0  0  0  0
 20  7  1  0  0  0  0
  2 21  1  0  0  0  0
 22 10  2  0  0  0  0
  1 23  1  0  0  0  0
  4 24  1  0  0  0  0
 25 21  2  0  0  0  0
 26 15  1  0  0  0  0
  3 27  1  0  0  0  0
 28 13  1  0  0  0  0
 26 29  1  6  0  0  0
  6 30  1  1  0  0  0
  5 31  1  6  0  0  0
 17  8  1  0  0  0  0
 14 12  1  0  0  0  0
  4  2  1  0  0  0  0
 26 28  1  0  0  0  0
 10 16  1  0  0  0  0
M  END
>  <IDNUMBER> (0407-0016)
0407-0016

>  <available> (0407-0016)
623

>  <H_acceptor> (0407-0016)
6

>  <H_donor> (0407-0016)
3

>  <B_rotN> (0407-0016)
4

>  <N_O> (0407-0016)
6

>  <logP> (0407-0016)
2

>  <logD> (0407-0016)
0.78

>  <logSw> (0407-0016)
-1.43

>  <PSA> (0407-0016)
104.06

>  <Chiral_centers> (0407-0016)
8

>  <Name> (0407-0016)
3a,5a,7-trihydroxy-11a-methyl-1-(5-oxo-2,5-dihydrofuran-3-yl)-hexadecahydro-1H-cyclopenta[a]phenanthrene-9a-carbaldehyde

>  <Smile> (0407-0016)
OC1CC2(C(C3C(C4(O)CCC(C4(C)CC3)C3=CC(OC3)=O)CC2)(C=O)CC1)O

>  <Collection> (0407-0016)
DC

>  <InChI Key> (0407-0016)
ODJLBQGVINUMMR-WXSQHWGUSA-N

>  <PERCENTSP3> (0407-0016)
82.6

$$$$

  -ISIS-  -- StrEd -- 

 19 22  0  0  1  0  0  0  0  0999 V2000
   -1.3531   -0.2268    0.0000 N   0  0  0  0  0  0  0  0  0  0  0  0
    0.3775   -0.2268    0.0000 C   0  0  0  0  0  0  0  0  0  0  0  0
    1.3482    1.1974    0.0000 N   0  0  0  0  0  0  0  0  0  0  0  0
   -0.4878    1.2439    0.0000 C   0  0  0  0  0  0  0  0  0  0  0  0
   -0.4878   -0.7196    0.0000 C   0  0  0  0  0  0  0  0  0  0  0  0
   -1.3531    0.7562    0.0000 C   0  0  0  0  0  0  0  0  0  0  0  0
   -2.2233   -0.7196    0.0000 C   0  0  0  0  0  0  0  0  0  0  0  0
    1.2771    0.2023    0.0000 C   0  0  1  0  0  0  0  0  0  0  0  0
    0.3824    1.7146    0.0000 C   0  0  0  0  0  0  0  0  0  0  0  0
    0.3775    0.7562    0.0000 C   0  0  0  0  0  0  0  0  0  0  0  0
   -2.2282   -1.7146    0.0000 O   0  0  0  0  0  0  0  0  0  0  0  0
    2.2528    1.6387    0.0000 C   0  0  0  0  0  0  0  0  0  0  0  0
   -3.0886   -0.2268    0.0000 C   0  0  0  0  0  0  0  0  0  0  0  0
   -2.2233    1.2439    0.0000 C   0  0  0  0  0  0  0  0  0  0  0  0
   -3.0886    0.7562    0.0000 C   0  0  0  0  0  0  0  0  0  0  0  0
    2.1007   -0.3616    0.0000 C   0  0  0  0  0  0  0  0  0  0  0  0
    3.0886    1.0748    0.0000 C   0  0  0  0  0  0  0  0  0  0  0  0
    3.0127    0.0797    0.0000 C   0  0  0  0  0  0  0  0  0  0  0  0
    1.2771   -0.7856    0.0000 H   0  0  0  0  0  0  0  0  0  0  0  0
  2  5  1  0  0  0  0
  3  9  1  0  0  0  0
  6  4  1  0  0  0  0
  5  1  1  0  0  0  0
  6  1  1  0  0  0  0
  7  1  1  0  0  0  0
  8  2  1  0  0  0  0
  9  4  1  0  0  0  0
 10  4  1  0  0  0  0
 11  7  2  0  0  0  0
 12  3  1  0  0  0  0
 13  7  1  0  0  0  0
 14  6  1  0  0  0  0
 15 13  1  0  0  0  0
 16  8  1  0  0  0  0
 17 12  1  0  0  0  0
 18 16  1  0  0  0  0
  8 19  1  6  0  0  0
 14 15  1  0  0  0  0
 10  2  1  0  0  0  0
  3  8  1  0  0  0  0
 17 18  1  0  0  0  0
M  END
>  <IDNUMBER> (N010-0020)
N010-0020

>  <available> (N010-0020)
735

>  <Saltdata> (N010-0020)
HClO4

>  <H_acceptor> (N010-0020)
2

>  <H_donor> (N010-0020)
0

>  <B_rotN> (N010-0020)
0

>  <N_O> (N010-0020)
3

>  <logP> (N010-0020)
1.42

>  <logD> (N010-0020)
-1.53

>  <logSw> (N010-0020)
-2.29

>  <PSA> (N010-0020)
23.55

>  <Chiral_centers> (N010-0020)
4

>  <Name> (N010-0020)
7,15-DIAZATETRACYCLO[7.7.1.0^(2,7).0^(10,15)]HEPTADECAN-6-ONE

>  <Smile> (N010-0020)
C1CC2C3CN4C(=O)CCCC4C(CN2CC1)C3

>  <Collection> (N010-0020)
DC

>  <InChI Key> (N010-0020)
JYIJIIVLEOETIQ-RFPFOJJUSA-N

>  <PERCENTSP3> (N010-0020)
93.3

$$$$

  -ISIS-  -- StrEd -- 

 44 48  0  0  0  0  0  0  0  0999 V2000
    2.0820   -1.1138    0.0000 C   0  0  0  0  0  0  0  0  0  0  0  0
   -0.5610   -0.2665    0.0000 C   0  0  0  0  0  0  0  0  0  0  0  0
    2.8507   -1.5683    0.0000 C   0  0  0  0  0  0  0  0  0  0  0  0
    1.3131   -1.5683    0.0000 C   0  0  0  0  0  0  0  0  0  0  0  0
    2.0820   -0.2387    0.0000 C   0  0  0  0  0  0  0  0  0  0  0  0
   -1.3131   -1.2203    0.0000 C   0  0  0  0  0  0  0  0  0  0  0  0
   -4.4663    0.1655    0.0000 C   0  0  0  0  0  0  0  0  0  0  0  0
    3.6304   -0.2387    0.0000 C   0  0  0  0  0  0  0  0  0  0  0  0
    3.6304   -1.1138    0.0000 C   0  0  0  0  0  0  0  0  0  0  0  0
   -2.7381   -1.2203    0.0000 C   0  0  0  0  0  0  0  0  0  0  0  0
   -5.9086    0.1655    0.0000 C   0  0  0  0  0  0  0  0  0  0  0  0
    2.8507    0.2214    0.0000 O   0  0  0  0  0  0  0  0  0  0  0  0
    0.5444   -0.2387    0.0000 C   0  0  0  0  0  0  0  0  0  0  0  0
    0.5444   -1.1138    0.0000 C   0  0  0  0  0  0  0  0  0  0  0  0
   -3.6976    1.1473    0.0000 C   0  0  0  0  0  0  0  0  0  0  0  0
   -1.3131    0.7604    0.0000 O   0  0  0  0  0  0  0  0  0  0  0  0
   -3.5068   -0.2665    0.0000 C   0  0  0  0  0  0  0  0  0  0  0  0
   -4.4663    2.1743    0.0000 O   0  0  0  0  0  0  0  0  0  0  0  0
   -2.7381    0.7604    0.0000 C   0  0  0  0  0  0  0  0  0  0  0  0
   -6.6717    1.1473    0.0000 C   0  0  0  0  0  0  0  0  0  0  0  0
    1.3131    0.2214    0.0000 C   0  0  0  0  0  0  0  0  0  0  0  0
   -0.5610    0.4234    0.0000 O   0  0  0  0  0  0  0  0  0  0  0  0
   -5.9086    2.1743    0.0000 C   0  0  0  0  0  0  0  0  0  0  0  0
   -3.6976    1.8207    0.0000 O   0  0  0  0  0  0  0  0  0  0  0  0
    4.3712    0.2214    0.0000 C   0  0  0  0  0  0  0  0  0  0  0  0
    2.8507   -2.4437    0.0000 O   0  0  0  0  0  0  0  0  0  0  0  0
   -2.7381    1.3942    0.0000 C   0  0  0  0  0  0  0  0  0  0  0  0
    1.3131   -2.4437    0.0000 O   0  0  0  0  0  0  0  0  0  0  0  0
   -1.3131   -2.0005    0.0000 O   0  0  0  0  0  0  0  0  0  0  0  0
   -4.4663   -0.8446    0.0000 O   0  0  0  0  0  0  0  0  0  0  0  0
    5.1399   -0.2387    0.0000 C   0  0  0  0  0  0  0  0  0  0  0  0
    4.3712    1.1081    0.0000 C   0  0  0  0  0  0  0  0  0  0  0  0
   -2.7550   -0.2387    0.0000 O   0  0  0  0  0  0  0  0  0  0  0  0
   -5.9199   -0.7885    0.0000 O   0  0  0  0  0  0  0  0  0  0  0  0
   -3.5068   -1.2599    0.0000 O   0  0  0  0  0  0  0  0  0  0  0  0
   -0.2243   -1.5460    0.0000 O   0  0  0  0  0  0  0  0  0  0  0  0
   -6.6717    2.0507    0.0000 O   0  0  0  0  0  0  0  0  0  0  0  0
    5.9199    1.1081    0.0000 C   0  0  0  0  0  0  0  0  0  0  0  0
    5.1399    1.5514    0.0000 C   0  0  0  0  0  0  0  0  0  0  0  0
    5.9199    0.2214    0.0000 C   0  0  0  0  0  0  0  0  0  0  0  0
    6.6717    1.5514    0.0000 O   0  0  0  0  0  0  0  0  0  0  0  0
   -5.8917    1.2315    0.0000 C   0  0  0  0  0  0  0  0  0  0  0  0
   -0.2243   -2.4325    0.0000 C   0  0  0  0  0  0  0  0  0  0  0  0
    6.6717    2.4437    0.0000 C   0  0  0  0  0  0  0  0  0  0  0  0
  2 22  1  0  0  0  0
  3  1  1  0  0  0  0
  4  1  1  0  0  0  0
  5  1  2  0  0  0  0
  6  2  1  0  0  0  0
  7 15  1  0  0  0  0
  8 12  1  0  0  0  0
  9  3  1  0  0  0  0
 10  6  1  0  0  0  0
 11  7  1  0  0  0  0
 12  5  1  0  0  0  0
 13 21  2  0  0  0  0
 14  4  2  0  0  0  0
 15 24  1  0  0  0  0
 16  2  1  0  0  0  0
 17 19  1  0  0  0  0
 18 15  1  0  0  0  0
 19 16  1  0  0  0  0
 20 23  1  0  0  0  0
 21  5  1  0  0  0  0
 22 13  1  0  0  0  0
 23 18  1  0  0  0  0
 24 27  1  0  0  0  0
 25  8  1  0  0  0  0
 26  3  2  0  0  0  0
 19 27  1  0  0  0  0
 28  4  1  0  0  0  0
  6 29  1  0  0  0  0
  7 30  1  0  0  0  0
 31 25  2  0  0  0  0
 32 25  1  0  0  0  0
 10 33  1  0  0  0  0
 11 34  1  0  0  0  0
 17 35  1  0  0  0  0
 36 14  1  0  0  0  0
 20 37  1  0  0  0  0
 38 39  1  0  0  0  0
 39 32  2  0  0  0  0
 40 31  1  0  0  0  0
 41 38  1  0  0  0  0
 23 42  1  0  0  0  0
 43 36  1  0  0  0  0
 44 41  1  0  0  0  0
 14 13  1  0  0  0  0
  8  9  2  0  0  0  0
 38 40  2  0  0  0  0
 10 17  1  0  0  0  0
 20 11  1  0  0  0  0
M  END
>  <IDNUMBER> (N027-0006)
N027-0006

>  <available> (N027-0006)
66

>  <H_acceptor> (N027-0006)
15

>  <H_donor> (N027-0006)
7

>  <B_rotN> (N027-0006)
15

>  <N_O> (N027-0006)
15

>  <logP> (N027-0006)
-0.3

>  <logD> (N027-0006)
-2.41

>  <logSw> (N027-0006)
-2.46

>  <PSA> (N027-0006)
223.29

>  <Chiral_centers> (N027-0006)
10

>  <Name> (N027-0006)
5-hydroxy-6-methoxy-2-(4-methoxyphenyl)-7-[(3,4,5-trihydroxy-6-{[(3,4,5-trihydroxy-6-methyloxan-2-yl)oxy]methyl}oxan-2-yl)oxy]-4H-chromen-4-one

>  <Smile> (N027-0006)
COc1ccc(C2Oc3c(c(O)c(c(c3)OC3C(C(C(C(O3)COC3C(O)C(C(C(O3)C)O)O)O)O)O)OC)C(=O)C=2)cc1

>  <Collection> (N027-0006)
DC

>  <InChI Key> (N027-0006)
DUXQKCCELUKXOE-UHFFFAOYSA-N

>  <PERCENTSP3> (N027-0006)
48.3

$$$$

  -ISIS-  -- StrEd -- 

 16 18  0  0  0  0  0  0  0  0999 V2000
    0.3658    0.2114    0.0000 C   0  0  0  0  0  0  0  0  0  0  0  0
   -0.5296   -0.2731    0.0000 C   0  0  0  0  0  0  0  0  0  0  0  0
   -1.4085    0.2114    0.0000 C   0  0  0  0  0  0  0  0  0  0  0  0
    1.2495   -0.2731    0.0000 O   0  0  0  0  0  0  0  0  0  0  0  0
    0.3658    1.2209    0.0000 C   0  0  0  0  0  0  0  0  0  0  0  0
   -1.4085    1.2209    0.0000 C   0  0  0  0  0  0  0  0  0  0  0  0
    2.0926    0.2114    0.0000 C   0  0  0  0  0  0  0  0  0  0  0  0
    1.2495    1.7221    0.0000 C   0  0  0  0  0  0  0  0  0  0  0  0
   -0.5296    1.7221    0.0000 C   0  0  0  0  0  0  0  0  0  0  0  0
    2.0926    1.2209    0.0000 C   0  0  0  0  0  0  0  0  0  0  0  0
   -2.3943   -0.0807    0.0000 O   0  0  0  0  0  0  0  0  0  0  0  0
   -2.9477    0.7174    0.0000 C   0  0  0  0  0  0  0  0  0  0  0  0
   -2.3658    1.5394    0.0000 C   0  0  0  0  0  0  0  0  0  0  0  0
    2.9477   -0.2731    0.0000 O   0  0  0  0  0  0  0  0  0  0  0  0
   -0.5368   -1.2493    0.0000 O   0  0  0  0  0  0  0  0  0  0  0  0
   -1.3729   -1.7221    0.0000 C   0  0  0  0  0  0  0  0  0  0  0  0
  2  1  1  0  0  0  0
  3  2  2  0  0  0  0
  4  1  1  0  0  0  0
  5  1  2  0  0  0  0
  6  9  2  0  0  0  0
  7  4  1  0  0  0  0
  8  5  1  0  0  0  0
  9  5  1  0  0  0  0
 10  8  2  0  0  0  0
 11  3  1  0  0  0  0
 12 11  1  0  0  0  0
 13  6  1  0  0  0  0
 14  7  2  0  0  0  0
 15  2  1  0  0  0  0
 16 15  1  0  0  0  0
  6  3  1  0  0  0  0
 10  7  1  0  0  0  0
 12 13  2  0  0  0  0
M  END
>  <IDNUMBER> (N034-0006)
N034-0006

>  <available> (N034-0006)
203

>  <H_acceptor> (N034-0006)
4

>  <H_donor> (N034-0006)
0

>  <B_rotN> (N034-0006)
1

>  <N_O> (N034-0006)
4

>  <logP> (N034-0006)
1.76

>  <logD> (N034-0006)
1.88

>  <logSw> (N034-0006)
-2.83

>  <PSA> (N034-0006)
48.67

>  <Chiral_centers> (N034-0006)
0

>  <Name> (N034-0006)
9-methoxy-7H-furo[3,2-g]chromen-7-one

>  <Smile> (N034-0006)
COc1c2c(C=CC(O2)=O)cc2c1OC=C2

>  <Collection> (N034-0006)
DC

>  <CLNUMBER> (N034-0006)
CL5282

>  <InChI Key> (N034-0006)
QXKHYNVANLEOEG-UHFFFAOYSA-N

>  <PERCENTSP3> (N034-0006)
8.3

$$$$

  -ISIS-  -- StrEd -- 

 24 27  0  0  0  0  0  0  0  0999 V2000
    1.4749    0.6801    0.0000 C   0  0  0  0  0  0  0  0  0  0  0  0
   -1.1256   -0.8208    0.0000 C   0  0  0  0  0  0  0  0  0  0  0  0
    1.4749   -0.3205    0.0000 C   0  0  0  0  0  0  0  0  0  0  0  0
   -0.2761   -0.3205    0.0000 C   0  0  0  0  0  0  0  0  0  0  0  0
    0.6253   -0.8208    0.0000 C   0  0  0  0  0  0  0  0  0  0  0  0
    2.4286    0.9823    0.0000 C   0  0  0  0  0  0  0  0  0  0  0  0
   -1.1256   -1.8214    0.0000 C   0  0  1  0  0  0  0  0  0  0  0  0
    0.5994    1.1804    0.0000 C   0  0  0  0  0  0  0  0  0  0  0  0
   -0.2761    0.6801    0.0000 C   0  0  0  0  0  0  0  0  0  0  0  0
    2.4286   -0.6228    0.0000 C   0  0  0  0  0  0  0  0  0  0  0  0
   -2.0013   -0.3205    0.0000 C   0  0  0  0  0  0  0  0  0  0  0  0
    3.0017    0.2058    0.0000 C   0  0  0  0  0  0  0  0  0  0  0  0
    0.6253   -1.8214    0.0000 C   0  0  0  0  0  0  0  0  0  0  0  0
    2.7777    1.9309    0.0000 C   0  0  0  0  0  0  0  0  0  0  0  0
   -0.2761   -2.3216    0.0000 C   0  0  0  0  0  0  0  0  0  0  0  0
   -2.0013   -2.3216    0.0000 C   0  0  0  0  0  0  0  0  0  0  0  0
    3.7523    2.1288    0.0000 O   0  0  0  0  0  0  0  0  0  0  0  0
    1.4749    1.7067    0.0000 C   0  0  0  0  0  0  0  0  0  0  0  0
   -2.8768   -0.8208    0.0000 C   0  0  0  0  0  0  0  0  0  0  0  0
   -2.8768   -1.8214    0.0000 C   0  0  0  0  0  0  0  0  0  0  0  0
   -1.1256    0.1799    0.0000 C   0  0  0  0  0  0  0  0  0  0  0  0
   -3.7523   -2.3478    0.0000 O   0  0  0  0  0  0  0  0  0  0  0  0
    2.1263    2.7073    0.0000 C   0  0  0  0  0  0  0  0  0  0  0  0
   -1.1256   -2.7073    0.0000 H   0  0  0  0  0  0  0  0  0  0  0  0
  4  2  1  0  0  0  0
  3  1  1  0  0  0  0
  4  9  1  0  0  0  0
  5  3  1  0  0  0  0
  6  1  1  0  0  0  0
  7  2  1  0  0  0  0
  8  1  1  0  0  0  0
  9  8  1  0  0  0  0
 10  3  1  0  0  0  0
 11  2  1  0  0  0  0
 12  6  1  0  0  0  0
 13  5  1  0  0  0  0
  6 14  1  0  0  0  0
 15 13  1  0  0  0  0
 16  7  1  0  0  0  0
 17 14  2  0  0  0  0
  1 18  1  0  0  0  0
 19 11  1  0  0  0  0
 20 19  1  0  0  0  0
  2 21  1  0  0  0  0
 20 22  1  0  0  0  0
 23 14  1  0  0  0  0
  7 24  1  6  0  0  0
 12 10  1  0  0  0  0
  4  5  1  0  0  0  0
  7 15  1  0  0  0  0
 16 20  1  0  0  0  0
M  END
>  <IDNUMBER> (N039-0025)
N039-0025

>  <available> (N039-0025)
265

>  <H_acceptor> (N039-0025)
2

>  <H_donor> (N039-0025)
1

>  <B_rotN> (N039-0025)
2

>  <N_O> (N039-0025)
2

>  <logP> (N039-0025)
3.73

>  <logD> (N039-0025)
2.24

>  <logSw> (N039-0025)
-6.98

>  <PSA> (N039-0025)
37.3

>  <Chiral_centers> (N039-0025)
8

>  <Name> (N039-0025)
1-{7-hydroxy-9a,11a-dimethyl-hexadecahydro-1H-cyclopenta[a]phenanthren-1-yl}ethan-1-one

>  <Smile> (N039-0025)
CC(C1C2(C)CCC3C4(C)C(CCC3C2CC1)CC(CC4)O)=O

>  <Collection> (N039-0025)
DC

>  <InChI Key> (N039-0025)
AURFZBICLPNKBZ-AKYBIBFZSA-N

>  <PERCENTSP3> (N039-0025)
95.2

$$$$

  -ISIS-  -- StrEd -- 

 18 20  0  0  0  0  0  0  0  0999 V2000
   -0.3846    0.2379    0.0000 C   0  0  0  0  0  0  0  0  0  0  0  0
    0.4611    0.7488    0.0000 C   0  0  0  0  0  0  0  0  0  0  0  0
   -2.1289    0.2379    0.0000 O   0  0  0  0  0  0  0  0  0  0  0  0
   -1.2539    0.7488    0.0000 C   0  0  0  0  0  0  0  0  0  0  0  0
    1.3361    0.2379    0.0000 O   0  0  0  0  0  0  0  0  0  0  0  0
   -2.0997   -0.7488    0.0000 C   0  0  0  0  0  0  0  0  0  0  0  0
   -0.3846   -0.7488    0.0000 C   0  0  0  0  0  0  0  0  0  0  0  0
   -1.2304   -1.2246    0.0000 C   0  0  0  0  0  0  0  0  0  0  0  0
    2.2112    0.7488    0.0000 C   0  0  0  0  0  0  0  0  0  0  0  0
    1.3361    2.2405    0.0000 C   0  0  0  0  0  0  0  0  0  0  0  0
    0.4611    1.7649    0.0000 C   0  0  0  0  0  0  0  0  0  0  0  0
    2.2112    1.7649    0.0000 C   0  0  0  0  0  0  0  0  0  0  0  0
   -1.2539    1.7649    0.0000 C   0  0  0  0  0  0  0  0  0  0  0  0
   -1.2304   -2.2405    0.0000 O   0  0  0  0  0  0  0  0  0  0  0  0
    3.0864    0.2379    0.0000 O   0  0  0  0  0  0  0  0  0  0  0  0
   -0.3846    2.2405    0.0000 C   0  0  0  0  0  0  0  0  0  0  0  0
   -2.9453   -1.2538    0.0000 C   0  0  0  0  0  0  0  0  0  0  0  0
   -3.0864   -0.5198    0.0000 C   0  0  0  0  0  0  0  0  0  0  0  0
  2  1  1  0  0  0  0
  3  4  1  0  0  0  0
  4  1  2  0  0  0  0
  5  2  1  0  0  0  0
  6  8  1  0  0  0  0
  7  1  1  0  0  0  0
  8  7  1  0  0  0  0
  9  5  1  0  0  0  0
 10 11  1  0  0  0  0
 11  2  2  0  0  0  0
 12 10  2  0  0  0  0
 13  4  1  0  0  0  0
 14  8  2  0  0  0  0
 15  9  2  0  0  0  0
 16 13  2  0  0  0  0
  6 17  1  0  0  0  0
 18  6  1  0  0  0  0
  6  3  1  0  0  0  0
 11 16  1  0  0  0  0
 12  9  1  0  0  0  0
M  END
>  <IDNUMBER> (0080-0015)
0080-0015

>  <available> (0080-0015)
4569

>  <H_acceptor> (0080-0015)
4

>  <H_donor> (0080-0015)
0

>  <B_rotN> (0080-0015)
0

>  <N_O> (0080-0015)
4

>  <logP> (0080-0015)
1.88

>  <logD> (0080-0015)
1.84

>  <logSw> (0080-0015)
-3.26

>  <PSA> (0080-0015)
52.6

>  <Chiral_centers> (0080-0015)
0

>  <Name> (0080-0015)
8,8-dimethyl-2H,8H,9H,10H-pyrano[2,3-h]chromene-2,9-dione

>  <Smile> (0080-0015)
CC1(Oc2c(CC1=O)c1OC(C=Cc1cc2)=O)C

>  <Collection> (0080-0015)
DC

>  <InChI Key> (0080-0015)
UKSKSIFYCHCZDG-UHFFFAOYSA-N

>  <PERCENTSP3> (0080-0015)
28.6

$$$$

  -ISIS-  -- StrEd -- 

 23 25  0  0  0  0  0  0  0  0999 V2000
   -1.2897   -1.7025    0.0000 C   0  0  0  0  0  0  0  0  0  0  0  0
   -2.1619   -1.2081    0.0000 C   0  0  0  0  0  0  0  0  0  0  0  0
   -0.4360   -1.2081    0.0000 C   0  0  0  0  0  0  0  0  0  0  0  0
   -0.4360   -0.2238    0.0000 C   0  0  0  0  0  0  0  0  0  0  0  0
    1.3317    1.7677    0.0000 C   0  0  0  0  0  0  0  0  0  0  0  0
   -2.1619   -0.2238    0.0000 C   0  0  0  0  0  0  0  0  0  0  0  0
    2.1804    1.2779    0.0000 N   0  0  0  0  0  0  0  0  0  0  0  0
    0.4595    1.2779    0.0000 C   0  0  0  0  0  0  0  0  0  0  0  0
    0.4595    0.2891    0.0000 C   0  0  0  0  0  0  0  0  0  0  0  0
   -1.3130    0.2891    0.0000 C   0  0  0  0  0  0  0  0  0  0  0  0
   -1.4902   -2.6865    0.0000 O   0  0  0  0  0  0  0  0  0  0  0  0
   -2.8988   -1.9029    0.0000 C   0  0  0  0  0  0  0  0  0  0  0  0
   -2.4742   -2.7751    0.0000 C   0  0  0  0  0  0  0  0  0  0  0  0
    1.3317    2.7751    0.0000 O   0  0  0  0  0  0  0  0  0  0  0  0
    0.4781   -1.6791    0.0000 O   0  0  0  0  0  0  0  0  0  0  0  0
   -3.0340    0.3125    0.0000 O   0  0  0  0  0  0  0  0  0  0  0  0
    2.1804    0.2891    0.0000 C   0  0  0  0  0  0  0  0  0  0  0  0
    3.0526    1.7911    0.0000 C   0  0  0  0  0  0  0  0  0  0  0  0
    0.5013   -2.6865    0.0000 C   0  0  0  0  0  0  0  0  0  0  0  0
   -3.9062   -0.2006    0.0000 C   0  0  0  0  0  0  0  0  0  0  0  0
    3.9062    1.2966    0.0000 C   0  0  0  0  0  0  0  0  0  0  0  0
    3.0526   -0.2006    0.0000 C   0  0  0  0  0  0  0  0  0  0  0  0
    3.9062    0.2891    0.0000 C   0  0  0  0  0  0  0  0  0  0  0  0
  2  1  2  0  0  0  0
  3  1  1  0  0  0  0
  4  3  2  0  0  0  0
  5  8  1  0  0  0  0
  6  2  1  0  0  0  0
  7  5  1  0  0  0  0
  8  9  2  0  0  0  0
  9  4  1  0  0  0  0
 10  4  1  0  0  0  0
 11  1  1  0  0  0  0
 12  2  1  0  0  0  0
 13 11  1  0  0  0  0
 14  5  2  0  0  0  0
 15  3  1  0  0  0  0
 16  6  1  0  0  0  0
 17  7  1  0  0  0  0
 18  7  1  0  0  0  0
 19 15  1  0  0  0  0
 20 16  1  0  0  0  0
 21 18  1  0  0  0  0
 22 17  1  0  0  0  0
 23 21  1  0  0  0  0
 13 12  2  0  0  0  0
  6 10  2  0  0  0  0
 23 22  1  0  0  0  0
M  END
>  <IDNUMBER> (N005-0003)
N005-0003

>  <available> (N005-0003)
69

>  <H_acceptor> (N005-0003)
4

>  <H_donor> (N005-0003)
0

>  <B_rotN> (N005-0003)
5

>  <N_O> (N005-0003)
5

>  <logP> (N005-0003)
2.24

>  <logD> (N005-0003)
2.82

>  <logSw> (N005-0003)
-4.85

>  <PSA> (N005-0003)
51.91

>  <Chiral_centers> (N005-0003)
0

>  <Name> (N005-0003)
(2E)-3-(4,7-dimethoxy-1-benzofuran-6-yl)-1-(piperidin-1-yl)prop-2-en-1-one

>  <Smile> (N005-0003)
C1CCN(C(C=Cc2c(c3OC=Cc3c(c2)OC)OC)=O)CC1

>  <Collection> (N005-0003)
DC

>  <InChI Key> (N005-0003)
UCSFROZTTVDDOQ-VOTSOKGWSA-N

>  <PERCENTSP3> (N005-0003)
38.9

$$$$

  -ISIS-  -- StrEd -- 

 42 48  0  0  0  0  0  0  0  0999 V2000
    3.6470    3.1880    0.0000 N   0  0  0  0  0  0  0  0  0  0  0  0
    1.1171   -0.5866    0.0000 C   0  0  0  0  0  0  0  0  0  0  0  0
    1.9152   -0.1316    0.0000 C   0  0  0  0  0  0  0  0  0  0  0  0
    3.5273    1.5998    0.0000 C   0  0  0  0  0  0  0  0  0  0  0  0
    2.6972   -0.5866    0.0000 C   0  0  0  0  0  0  0  0  0  0  0  0
    3.0006    0.8498    0.0000 C   0  0  0  0  0  0  0  0  0  0  0  0
   -1.9152   -2.2863    0.0000 C   0  0  0  0  0  0  0  0  0  0  0  0
   -1.6839   -3.7708    0.0000 C   0  0  0  0  0  0  0  0  0  0  0  0
    4.9556    2.2943    0.0000 C   0  0  0  0  0  0  0  0  0  0  0  0
   -2.5696   -4.7204    0.0000 C   0  0  0  0  0  0  0  0  0  0  0  0
    4.4449    1.5521    0.0000 C   0  0  0  0  0  0  0  0  0  0  0  0
    3.4075    0.0439    0.0000 C   0  0  0  0  0  0  0  0  0  0  0  0
    4.5646    3.1242    0.0000 C   0  0  0  0  0  0  0  0  0  0  0  0
    1.1171   -1.5203    0.0000 C   0  0  0  0  0  0  0  0  0  0  0  0
   -3.0006   -1.6561    0.0000 O   0  0  0  0  0  0  0  0  0  0  0  0
    3.1361    2.4458    0.0000 C   0  0  0  0  0  0  0  0  0  0  0  0
   -3.6949   -4.0980    0.0000 C   0  0  0  0  0  0  0  0  0  0  0  0
    1.9152   -1.9830    0.0000 C   0  0  0  0  0  0  0  0  0  0  0  0
    2.1226    0.7858    0.0000 C   0  0  0  0  0  0  0  0  0  0  0  0
   -3.9263   -2.5897    0.0000 C   0  0  0  0  0  0  0  0  0  0  0  0
    2.6972   -1.5203    0.0000 C   0  0  0  0  0  0  0  0  0  0  0  0
    0.3353   -0.1316    0.0000 C   0  0  0  0  0  0  0  0  0  0  0  0
    4.8120    0.7063    0.0000 C   0  0  0  0  0  0  0  0  0  0  0  0
    4.3012   -0.0441    0.0000 C   0  0  0  0  0  0  0  0  0  0  0  0
   -1.0376   -2.2144    0.0000 O   0  0  0  0  0  0  0  0  0  0  0  0
    3.2639    4.0179    0.0000 C   0  0  0  0  0  0  0  0  0  0  0  0
    5.0915    3.8665    0.0000 C   0  0  0  0  0  0  0  0  0  0  0  0
    0.3353   -1.9830    0.0000 C   0  0  0  0  0  0  0  0  0  0  0  0
    1.8995   -2.7094    0.0000 O   0  0  0  0  0  0  0  0  0  0  0  0
   -0.4630   -1.5203    0.0000 C   0  0  0  0  0  0  0  0  0  0  0  0
    5.8495    2.8370    0.0000 O   0  0  0  0  0  0  0  0  0  0  0  0
   -0.5826   -4.0980    0.0000 O   0  0  0  0  0  0  0  0  0  0  0  0
   -2.2023   -5.6539    0.0000 O   0  0  0  0  0  0  0  0  0  0  0  0
   -4.7162   -4.4648    0.0000 O   0  0  0  0  0  0  0  0  0  0  0  0
   -0.4630   -0.5866    0.0000 C   0  0  0  0  0  0  0  0  0  0  0  0
    1.0134    0.7221    0.0000 C   0  0  0  0  0  0  0  0  0  0  0  0
    4.6844    4.7122    0.0000 C   0  0  0  0  0  0  0  0  0  0  0  0
    5.8175    1.8872    0.0000 C   0  0  0  0  0  0  0  0  0  0  0  0
    3.7826    4.7840    0.0000 C   0  0  0  0  0  0  0  0  0  0  0  0
   -4.6286   -1.7280    0.0000 C   0  0  0  0  0  0  0  0  0  0  0  0
   -5.8495   -1.6880    0.0000 O   0  0  0  0  0  0  0  0  0  0  0  0
    3.4953    5.6539    0.0000 C   0  0  0  0  0  0  0  0  0  0  0  0
  3  2  1  0  0  0  0
  3 19  1  0  0  0  0
  4 16  1  0  0  0  0
 12  5  1  0  0  0  0
  6  4  1  0  0  0  0
  7 25  1  0  0  0  0
  8  7  1  0  0  0  0
 13  9  1  0  0  0  0
 10  8  1  0  0  0  0
 11  4  1  0  0  0  0
 12  6  1  0  0  0  0
 13  1  1  0  0  0  0
 14  2  1  0  0  0  0
 15  7  1  0  0  0  0
 16  1  1  0  0  0  0
 17 20  1  0  0  0  0
 18 21  1  0  0  0  0
 19  6  1  0  0  0  0
 20 15  1  0  0  0  0
 21  5  1  0  0  0  0
 22  2  1  0  0  0  0
 23 11  1  0  0  0  0
 24 23  1  0  0  0  0
 30 25  1  0  0  0  0
 26  1  1  0  0  0  0
 27 13  1  0  0  0  0
 28 14  1  0  0  0  0
 29 18  2  0  0  0  0
 30 35  1  0  0  0  0
  9 31  1  0  0  0  0
  8 32  1  0  0  0  0
 10 33  1  0  0  0  0
 17 34  1  0  0  0  0
 35 22  1  0  0  0  0
  2 36  1  0  0  0  0
 37 39  1  0  0  0  0
 38  9  1  0  0  0  0
 39 26  1  0  0  0  0
 20 40  1  0  0  0  0
 41 40  1  0  0  0  0
 39 42  1  0  0  0  0
 27 37  1  0  0  0  0
 11  9  1  0  0  0  0
 12 24  1  0  0  0  0
  5  3  1  0  0  0  0
 14 18  1  0  0  0  0
 28 30  1  0  0  0  0
 10 17  1  0  0  0  0
M  END
>  <IDNUMBER> (N070-0005)
N070-0005

>  <available> (N070-0005)
156

>  <H_acceptor> (N070-0005)
9

>  <H_donor> (N070-0005)
5

>  <B_rotN> (N070-0005)
8

>  <N_O> (N070-0005)
9

>  <logP> (N070-0005)
1.47

>  <logD> (N070-0005)
0.95

>  <logSw> (N070-0005)
-4.64

>  <PSA> (N070-0005)
139.92

>  <Chiral_centers> (N070-0005)
17

>  <Name> (N070-0005)
9-hydroxy-9,12,16b-trimethyl-3-{[3,4,5-trihydroxy-6-(hydroxymethyl)tetrahydro-2H-pyran-2-yl]oxy}docosahydrobenzo[4,5]indeno[1,2-h]pyrido[1,2-b]isoquinolin-5(1H)-one

>  <Smile> (N070-0005)
CC1CN2CC3C4C(C5C(C6(C(C(C5)=O)CC(OC5C(C(C(C(O5)CO)O)O)O)CC6)C)C4)CCC3C(C)(O)C2CC1

>  <Collection> (N070-0005)
DC

>  <InChI Key> (N070-0005)
DHQFYEJMFMYGCV-UHFFFAOYSA-N

>  <PERCENTSP3> (N070-0005)
97

$$$$

  -ISIS-  -- StrEd -- 

 42 47  0  0  0  0  0  0  0  0999 V2000
    2.1486    2.3314    0.0000 N   0  0  0  0  0  0  0  0  0  0  0  0
   -0.8625   -1.9959    0.0000 C   0  0  0  0  0  0  0  0  0  0  0  0
    0.0578   -1.4719    0.0000 C   0  0  2  0  0  0  0  0  0  0  0  0
    1.9595    0.5332    0.0000 C   0  0  0  0  0  0  0  0  0  0  0  0
    0.9784   -1.9959    0.0000 C   0  0  0  0  0  0  0  0  0  0  0  0
    1.3316   -0.3261    0.0000 C   0  0  1  0  0  0  0  0  0  0  0  0
    3.6294    1.2830    0.0000 C   0  0  1  0  0  0  0  0  0  0  0  0
    3.0137    0.4053    0.0000 C   0  0  0  0  0  0  0  0  0  0  0  0
    1.7827   -1.2769    0.0000 C   0  0  1  0  0  0  0  0  0  0  0  0
    3.2027    2.2337    0.0000 C   0  0  2  0  0  0  0  0  0  0  0  0
   -0.8625   -3.0504    0.0000 C   0  0  1  0  0  0  0  0  0  0  0  0
    1.5085    1.5023    0.0000 C   0  0  0  0  0  0  0  0  0  0  0  0
    0.0578   -3.5928    0.0000 C   0  0  0  0  0  0  0  0  0  0  0  0
    0.2652   -0.4296    0.0000 C   0  0  0  0  0  0  0  0  0  0  0  0
    0.9784   -3.0504    0.0000 C   0  0  0  0  0  0  0  0  0  0  0  0
   -1.7705   -1.4719    0.0000 C   0  0  0  0  0  0  0  0  0  0  0  0
    3.4222   -0.5210    0.0000 C   0  0  0  0  0  0  0  0  0  0  0  0
    2.8066   -1.3805    0.0000 C   0  0  0  0  0  0  0  0  0  0  0  0
    1.6973    3.3125    0.0000 C   0  0  0  0  0  0  0  0  0  0  0  0
    3.8182    3.0808    0.0000 C   0  0  0  0  0  0  0  0  0  0  0  0
   -3.6416   -4.5680    0.0000 C   0  0  0  0  0  0  0  0  0  0  0  0
   -1.7705   -3.5928    0.0000 C   0  0  0  0  0  0  0  0  0  0  0  0
    0.0578   -4.6412    0.0000 O   0  0  0  0  0  0  0  0  0  0  0  0
   -3.6416   -3.5928    0.0000 O   0  0  0  0  0  0  0  0  0  0  0  0
   -2.6909   -3.0504    0.0000 C   0  0  0  0  0  0  0  0  0  0  0  0
   -4.4766   -5.0983    0.0000 O   0  0  0  0  0  0  0  0  0  0  0  0
    4.4766    1.9412    0.0000 O   0  0  0  0  0  0  0  0  0  0  0  0
   -2.6909   -1.9959    0.0000 C   0  0  0  0  0  0  0  0  0  0  0  0
   -0.8625   -0.9416    0.0000 C   0  0  0  0  0  0  0  0  0  0  0  0
    3.3917    4.0315    0.0000 C   0  0  0  0  0  0  0  0  0  0  0  0
    4.2876    0.4601    0.0000 C   0  0  0  0  0  0  0  0  0  0  0  0
    2.3251    4.1597    0.0000 C   0  0  0  0  0  0  0  0  0  0  0  0
   -2.8371   -5.1408    0.0000 C   0  0  0  0  0  0  0  0  0  0  0  0
    1.9167    5.1408    0.0000 C   0  0  0  0  0  0  0  0  0  0  0  0
    2.0629   -1.9108    0.0000 H   0  0  0  0  0  0  0  0  0  0  0  0
    2.3556   -0.0639    0.0000 H   0  0  0  0  0  0  0  0  0  0  0  0
    2.7213    1.0147    0.0000 H   0  0  0  0  0  0  0  0  0  0  0  0
    2.8800    2.9774    0.0000 H   0  0  0  0  0  0  0  0  0  0  0  0
   -0.8625   -3.9707    0.0000 H   0  0  0  0  0  0  0  0  0  0  0  0
    0.0578   -2.2276    0.0000 H   0  0  0  0  0  0  0  0  0  0  0  0
    0.9658   -1.2769    0.0000 H   0  0  0  0  0  0  0  0  0  0  0  0
    1.0698    0.2590    0.0000 H   0  0  0  0  0  0  0  0  0  0  0  0
  2  3  1  0  0  0  0
  3 14  1  0  0  0  0
  4 12  1  0  0  0  0
  5  9  1  0  0  0  0
  6  4  1  0  0  0  0
  7 10  1  0  0  0  0
  8  4  1  0  0  0  0
  9  6  1  0  0  0  0
 10  1  1  0  0  0  0
 11  2  1  0  0  0  0
 12  1  1  0  0  0  0
 13 15  1  0  0  0  0
 14  6  1  0  0  0  0
 15  5  1  0  0  0  0
 16  2  1  0  0  0  0
 17  8  1  0  0  0  0
 18 17  1  0  0  0  0
 19  1  1  0  0  0  0
 20 10  1  0  0  0  0
 21 24  1  0  0  0  0
 22 11  1  0  0  0  0
 23 13  2  0  0  0  0
 25 24  1  0  0  0  0
 25 28  1  0  0  0  0
 26 21  2  0  0  0  0
 27  7  1  0  0  0  0
 28 16  1  0  0  0  0
  2 29  1  0  0  0  0
 30 32  1  0  0  0  0
  7 31  1  6  0  0  0
 32 19  1  0  0  0  0
 33 21  1  0  0  0  0
 32 34  1  0  0  0  0
  9 35  1  6  0  0  0
  4 36  1  0  0  0  0
  8 37  1  0  0  0  0
 10 38  1  6  0  0  0
 11 39  1  6  0  0  0
  3 40  1  6  0  0  0
  5 41  1  0  0  0  0
  6 42  1  6  0  0  0
 30 20  1  0  0  0  0
  7  8  1  0  0  0  0
  9 18  1  0  0  0  0
  5  3  1  0  0  0  0
 11 13  1  0  0  0  0
 25 22  1  0  0  0  0
M  END
>  <IDNUMBER> (N070-0006)
N070-0006

>  <available> (N070-0006)
233

>  <H_acceptor> (N070-0006)
5

>  <H_donor> (N070-0006)
1

>  <B_rotN> (N070-0006)
3

>  <N_O> (N070-0006)
5

>  <logP> (N070-0006)
3.59

>  <logD> (N070-0006)
4.58

>  <logSw> (N070-0006)
-4.86

>  <PSA> (N070-0006)
66.84

>  <Chiral_centers> (N070-0006)
12

>  <Name> (N070-0006)
10-HYDROXY-6,10,23-TRIMETHYL-17-OXO-4-AZAHEXACYCLO[12.11.0.0^(2,11).0^(4,9).0^(15,24).0^(18,23)]PENTACOSAN-20-YL ACETATE

>  <Smile> (N070-0006)
CC1CN2CC3C(C(O)(C)C2CC1)CCC1C2C(C4(C(C(C2)=O)CC(OC(=O)C)CC4)C)CC13

>  <Collection> (N070-0006)
DC

>  <InChI Key> (N070-0006)
LCJGVSFMDQXVDC-JKJPRVHUSA-N

>  <PERCENTSP3> (N070-0006)
93.1

$$$$

  -ISIS-  -- StrEd -- 

 23 26  0  0  0  0  0  0  0  0999 V2000
    1.6159    1.1273    0.0000 C   0  0  0  0  0  0  0  0  0  0  0  0
   -0.9870   -0.3483    0.0000 C   0  0  0  0  0  0  0  0  0  0  0  0
   -0.1403    0.1306    0.0000 C   0  0  0  0  0  0  0  0  0  0  0  0
    1.6159    0.1306    0.0000 C   0  0  0  0  0  0  0  0  0  0  0  0
    0.7306   -0.3483    0.0000 C   0  0  0  0  0  0  0  0  0  0  0  0
   -0.9870   -1.4031    0.0000 C   0  0  0  0  0  0  0  0  0  0  0  0
    2.5303    1.4176    0.0000 C   0  0  0  0  0  0  0  0  0  0  0  0
    0.7306    1.6497    0.0000 C   0  0  0  0  0  0  0  0  0  0  0  0
   -0.1403    1.1273    0.0000 C   0  0  0  0  0  0  0  0  0  0  0  0
   -1.8579    0.1306    0.0000 C   0  0  0  0  0  0  0  0  0  0  0  0
    2.5642   -0.1356    0.0000 C   0  0  0  0  0  0  0  0  0  0  0  0
    0.7306   -1.4031    0.0000 C   0  0  0  0  0  0  0  0  0  0  0  0
   -0.1403   -1.8772    0.0000 C   0  0  0  0  0  0  0  0  0  0  0  0
    3.1350    0.6628    0.0000 C   0  0  0  0  0  0  0  0  0  0  0  0
   -1.8579   -1.8772    0.0000 C   0  0  0  0  0  0  0  0  0  0  0  0
    2.5303    2.3222    0.0000 O   0  0  0  0  0  0  0  0  0  0  0  0
   -2.7530   -0.3483    0.0000 C   0  0  0  0  0  0  0  0  0  0  0  0
   -2.7530   -1.4031    0.0000 C   0  0  0  0  0  0  0  0  0  0  0  0
   -0.9870    0.5951    0.0000 C   0  0  0  0  0  0  0  0  0  0  0  0
    1.6159    2.1480    0.0000 C   0  0  0  0  0  0  0  0  0  0  0  0
   -3.6238   -1.9159    0.0000 O   0  0  0  0  0  0  0  0  0  0  0  0
    3.6238    1.7998    0.0000 C   0  0  0  0  0  0  0  0  0  0  0  0
   -1.0112   -2.3222    0.0000 H   0  0  0  0  0  0  0  0  0  0  0  0
  3  2  1  0  0  0  0
  3  9  1  0  0  0  0
  4  1  1  0  0  0  0
  5  4  1  0  0  0  0
  6  2  1  0  0  0  0
  7  1  1  0  0  0  0
  8  1  1  0  0  0  0
  9  8  1  0  0  0  0
 10  2  1  0  0  0  0
 11  4  1  0  0  0  0
 12  5  1  0  0  0  0
 13 12  1  0  0  0  0
  7 14  1  0  0  0  0
  6 15  1  0  0  0  0
 16  7  1  0  0  0  0
 17 10  1  0  0  0  0
 18 17  1  0  0  0  0
  2 19  1  0  0  0  0
  1 20  1  0  0  0  0
 18 21  1  0  0  0  0
 22  7  1  0  0  0  0
 23  6  1  0  0  0  0
 11 14  1  0  0  0  0
  5  3  1  0  0  0  0
 13  6  1  0  0  0  0
 18 15  1  0  0  0  0
M  END
>  <IDNUMBER> (N017-0003)
N017-0003

>  <available> (N017-0003)
79

>  <H_acceptor> (N017-0003)
2

>  <H_donor> (N017-0003)
2

>  <B_rotN> (N017-0003)
2

>  <N_O> (N017-0003)
2

>  <logP> (N017-0003)
3.69

>  <logD> (N017-0003)
4.47

>  <logSw> (N017-0003)
-4.43

>  <PSA> (N017-0003)
40.46

>  <Chiral_centers> (N017-0003)
8

>  <Name> (N017-0003)
1,9a,11a-trimethyl-hexadecahydro-1H-cyclopenta[a]phenanthrene-1,7-diol

>  <Smile> (N017-0003)
CC1(C2(C)CCC3C4(C)C(CCC3C2CC1)CC(CC4)O)O

>  <Collection> (N017-0003)
DC

>  <InChI Key> (N017-0003)
QGKQXZFZOIQFBI-UHFFFAOYSA-N

>  <PERCENTSP3> (N017-0003)
100

$$$$

  -ISIS-  -- StrEd -- 

 29 32  0  0  0  0  0  0  0  0999 V2000
    1.4921   -0.1921    0.0000 C   0  0  0  0  0  0  0  0  0  0  0  0
   -1.1037   -1.7020    0.0000 C   0  0  0  0  0  0  0  0  0  0  0  0
    2.4155    0.0853    0.0000 C   0  0  1  0  0  0  0  0  0  0  0  0
    0.6281   -1.7020    0.0000 C   0  0  0  0  0  0  0  0  0  0  0  0
    1.4921   -1.2186    0.0000 C   0  0  0  0  0  0  0  0  0  0  0  0
   -0.2595   -1.1987    0.0000 C   0  0  0  0  0  0  0  0  0  0  0  0
   -1.1037   -2.7125    0.0000 C   0  0  0  0  0  0  0  0  0  0  0  0
    0.6281    0.2834    0.0000 C   0  0  0  0  0  0  0  0  0  0  0  0
   -0.2595   -0.1921    0.0000 C   0  0  0  0  0  0  0  0  0  0  0  0
   -1.9717   -1.1987    0.0000 C   0  0  0  0  0  0  0  0  0  0  0  0
    2.7007    1.0283    0.0000 C   0  0  0  0  0  0  0  0  0  0  0  0
   -1.9717   -3.2041    0.0000 C   0  0  0  0  0  0  0  0  0  0  0  0
    3.0058   -0.6755    0.0000 C   0  0  0  0  0  0  0  0  0  0  0  0
    2.4432   -1.5039    0.0000 C   0  0  0  0  0  0  0  0  0  0  0  0
    0.6281   -2.7125    0.0000 C   0  0  0  0  0  0  0  0  0  0  0  0
   -2.8276   -1.7020    0.0000 C   0  0  0  0  0  0  0  0  0  0  0  0
   -2.8276   -2.7125    0.0000 C   0  0  0  0  0  0  0  0  0  0  0  0
   -0.2595   -3.2041    0.0000 C   0  0  0  0  0  0  0  0  0  0  0  0
    0.3587    2.2451    0.0000 C   0  0  0  0  0  0  0  0  0  0  0  0
    2.0151    1.7498    0.0000 C   0  0  0  0  0  0  0  0  0  0  0  0
    3.6716    1.2266    0.0000 O   0  0  0  0  0  0  0  0  0  0  0  0
    1.0442    1.5318    0.0000 O   0  0  0  0  0  0  0  0  0  0  0  0
    0.5608    3.2041    0.0000 O   0  0  0  0  0  0  0  0  0  0  0  0
   -3.6716   -3.2041    0.0000 O   0  0  0  0  0  0  0  0  0  0  0  0
    3.6716    0.6004    0.0000 O   0  0  0  0  0  0  0  0  0  0  0  0
    1.4921    0.7510    0.0000 C   0  0  0  0  0  0  0  0  0  0  0  0
   -1.0957    0.3231    0.0000 O   0  0  0  0  0  0  0  0  0  0  0  0
   -1.1037   -0.8382    0.0000 C   0  0  0  0  0  0  0  0  0  0  0  0
   -0.6203    2.0628    0.0000 C   0  0  0  0  0  0  0  0  0  0  0  0
  6  2  1  0  0  0  0
  3  1  1  0  0  0  0
  5  4  1  0  0  0  0
  5  1  1  0  0  0  0
  6  9  1  0  0  0  0
  7  2  1  0  0  0  0
  8  1  1  0  0  0  0
  9  8  1  0  0  0  0
 10  2  1  0  0  0  0
 11  3  1  0  0  0  0
 12  7  2  0  0  0  0
 13  3  1  0  0  0  0
 14  5  1  0  0  0  0
 15  4  1  0  0  0  0
 16 10  2  0  0  0  0
 17 16  1  0  0  0  0
 18 15  1  0  0  0  0
 19 22  1  0  0  0  0
 20 11  1  0  0  0  0
 21 11  2  0  0  0  0
 22 20  1  0  0  0  0
 23 19  2  0  0  0  0
 24 17  2  0  0  0  0
  3 25  1  6  0  0  0
  1 26  1  0  0  0  0
  9 27  1  0  0  0  0
  2 28  1  0  0  0  0
 29 19  1  0  0  0  0
 14 13  1  0  0  0  0
  6  4  1  0  0  0  0
 18  7  1  0  0  0  0
 12 17  1  0  0  0  0
M  END
>  <IDNUMBER> (N050-0018)
N050-0018

>  <available> (N050-0018)
127

>  <H_acceptor> (N050-0018)
6

>  <H_donor> (N050-0018)
2

>  <B_rotN> (N050-0018)
5

>  <N_O> (N050-0018)
6

>  <logP> (N050-0018)
2.37

>  <logD> (N050-0018)
2.47

>  <logSw> (N050-0018)
-4.07

>  <PSA> (N050-0018)
100.9

>  <Chiral_centers> (N050-0018)
7

>  <Name> (N050-0018)
2-{1,10-dihydroxy-9a,11a-dimethyl-7-oxo-1H,2H,3H,3aH,3bH,4H,5H,7H,9aH,9bH,10H,11H,11aH-cyclopenta[a]phenanthren-1-yl}-2-oxoethyl acetate

>  <Smile> (N050-0018)
CC(OCC(C1(C2(C)CC(C3C4(C)C(CCC3C2CC1)=CC(C=C4)=O)O)O)=O)=O

>  <Collection> (N050-0018)
DC

>  <InChI Key> (N050-0018)
LRJOMUJRLNCICJ-NAMLDHCASA-N

>  <PERCENTSP3> (N050-0018)
69.6

$$$$

  -ISIS-  -- StrEd -- 

 31 35  0  0  0  0  0  0  0  0999 V2000
    0.1118   -0.1405    0.0000 C   0  0  0  0  0  0  0  0  0  0  0  0
    0.1118    0.7709    0.0000 C   0  0  0  0  0  0  0  0  0  0  0  0
   -2.2844   -0.5933    0.0000 C   0  0  0  0  0  0  0  0  0  0  0  0
    2.5310    1.2351    0.0000 C   0  0  0  0  0  0  0  0  0  0  0  0
   -0.6850   -0.5933    0.0000 C   0  0  0  0  0  0  0  0  0  0  0  0
    1.7053    0.7709    0.0000 C   0  0  0  0  0  0  0  0  0  0  0  0
    0.8799   -0.7308    0.0000 C   0  0  0  0  0  0  0  0  0  0  0  0
   -1.4818   -0.1405    0.0000 C   0  0  2  0  0  0  0  0  0  0  0  0
    1.7053   -0.1405    0.0000 C   0  0  0  0  0  0  0  0  0  0  0  0
    3.9640    1.2524    0.0000 C   0  0  0  0  0  0  0  0  0  0  0  0
   -2.2844   -1.4993    0.0000 C   0  0  0  0  0  0  0  0  0  0  0  0
   -0.6850    1.2238    0.0000 C   0  0  0  0  0  0  0  0  0  0  0  0
    3.9525    2.0494    0.0000 C   0  0  0  0  0  0  0  0  0  0  0  0
   -1.4818    0.7709    0.0000 C   0  0  0  0  0  0  0  0  0  0  0  0
    3.2189    2.5310    0.0000 O   0  0  0  0  0  0  0  0  0  0  0  0
   -3.0814   -0.1405    0.0000 C   0  0  0  0  0  0  0  0  0  0  0  0
   -0.6850   -1.4993    0.0000 C   0  0  0  0  0  0  0  0  0  0  0  0
    2.5310    2.0208    0.0000 C   0  0  0  0  0  0  0  0  0  0  0  0
   -1.4818   -1.9576    0.0000 C   0  0  0  0  0  0  0  0  0  0  0  0
    0.1232   -1.3215    0.0000 O   0  0  0  0  0  0  0  0  0  0  0  0
   -3.0814   -1.9576    0.0000 C   0  0  0  0  0  0  0  0  0  0  0  0
    4.8295    2.4335    0.0000 O   0  0  0  0  0  0  0  0  0  0  0  0
    0.1804    2.0894    0.0000 C   0  0  0  0  0  0  0  0  0  0  0  0
    2.6455   -0.6508    0.0000 O   0  0  0  0  0  0  0  0  0  0  0  0
   -3.8781   -0.5933    0.0000 C   0  0  0  0  0  0  0  0  0  0  0  0
   -3.8781   -1.4993    0.0000 C   0  0  0  0  0  0  0  0  0  0  0  0
   -2.3074    0.7939    0.0000 C   0  0  0  0  0  0  0  0  0  0  0  0
   -4.8295   -1.9979    0.0000 O   0  0  0  0  0  0  0  0  0  0  0  0
   -1.4818   -1.1322    0.0000 H   0  0  0  0  0  0  0  0  0  0  0  0
   -2.3074   -2.5310    0.0000 H   0  0  0  0  0  0  0  0  0  0  0  0
   -0.6850    0.5644    0.0000 H   0  0  0  0  0  0  0  0  0  0  0  0
  2  1  1  0  0  0  0
  3  8  1  0  0  0  0
  6  4  1  0  0  0  0
  5  1  1  0  0  0  0
  6  2  1  0  0  0  0
  7  1  1  0  0  0  0
  8  5  1  0  0  0  0
  9  7  1  0  0  0  0
 10  4  2  0  0  0  0
 11 19  1  0  0  0  0
 12  2  1  0  0  0  0
 13 10  1  0  0  0  0
 14  8  1  0  0  0  0
 15 18  1  0  0  0  0
 16  3  1  0  0  0  0
 17  5  1  0  0  0  0
 18  4  1  0  0  0  0
 19 17  1  0  0  0  0
  1 20  1  0  0  0  0
 21 11  1  0  0  0  0
 22 13  2  0  0  0  0
  2 23  1  0  0  0  0
  9 24  1  0  0  0  0
 25 16  1  0  0  0  0
 26 21  1  0  0  0  0
  3 27  1  0  0  0  0
 26 28  1  0  0  0  0
  8 29  1  6  0  0  0
 11 30  1  0  0  0  0
  5 31  1  0  0  0  0
  9  6  1  0  0  0  0
 14 12  1  0  0  0  0
 11  3  1  0  0  0  0
 13 15  1  0  0  0  0
 26 25  1  0  0  0  0
M  END
>  <IDNUMBER> (0407-0023)
0407-0023

>  <available> (0407-0023)
218

>  <H_acceptor> (0407-0023)
5

>  <H_donor> (0407-0023)
3

>  <B_rotN> (0407-0023)
4

>  <N_O> (0407-0023)
5

>  <logP> (0407-0023)
2.92

>  <logD> (0407-0023)
1.36

>  <logSw> (0407-0023)
-2.62

>  <PSA> (0407-0023)
86.99

>  <Chiral_centers> (0407-0023)
9

>  <Name> (0407-0023)
4-{2,3a,7-trihydroxy-9a,11a-dimethyl-hexadecahydro-1H-cyclopenta[a]phenanthren-1-yl}-2,5-dihydrofuran-2-one

>  <Smile> (0407-0023)
OC1CC2C(C)(CC1)C1C(C3(O)CC(C(C3(C)CC1)C1=CC(OC1)=O)O)CC2

>  <Collection> (0407-0023)
DC

>  <InChI Key> (0407-0023)
PVAMXWLZJKTXFW-IGXXZARXSA-N

>  <PERCENTSP3> (0407-0023)
87

$$$$

  -ISIS-  -- StrEd -- 

 18 19  0  0  0  0  0  0  0  0999 V2000
    0.4142    0.9907    0.0000 C   0  0  0  0  0  0  0  0  0  0  0  0
   -0.4413    0.4927    0.0000 C   0  0  0  0  0  0  0  0  0  0  0  0
    1.3020    0.4927    0.0000 O   0  0  0  0  0  0  0  0  0  0  0  0
    2.1574    1.0125    0.0000 C   0  0  0  0  0  0  0  0  0  0  0  0
   -0.4413   -0.4925    0.0000 C   0  0  0  0  0  0  0  0  0  0  0  0
    1.3020    2.4958    0.0000 C   0  0  0  0  0  0  0  0  0  0  0  0
    0.4142    2.0032    0.0000 C   0  0  0  0  0  0  0  0  0  0  0  0
    2.1574    2.0032    0.0000 C   0  0  0  0  0  0  0  0  0  0  0  0
    0.4142   -0.9852    0.0000 C   0  0  0  0  0  0  0  0  0  0  0  0
   -1.2966    1.0125    0.0000 C   0  0  0  0  0  0  0  0  0  0  0  0
    3.0399    0.5197    0.0000 O   0  0  0  0  0  0  0  0  0  0  0  0
    0.4142   -1.9978    0.0000 C   0  0  0  0  0  0  0  0  0  0  0  0
   -0.4413    2.4958    0.0000 C   0  0  0  0  0  0  0  0  0  0  0  0
   -1.2966    2.0032    0.0000 C   0  0  0  0  0  0  0  0  0  0  0  0
   -2.1844    0.5197    0.0000 O   0  0  0  0  0  0  0  0  0  0  0  0
   -0.4413   -2.4958    0.0000 C   0  0  0  0  0  0  0  0  0  0  0  0
    1.3020   -2.4958    0.0000 C   0  0  0  0  0  0  0  0  0  0  0  0
   -3.0399    1.0394    0.0000 C   0  0  0  0  0  0  0  0  0  0  0  0
  2  1  2  0  0  0  0
  3  1  1  0  0  0  0
  4  3  1  0  0  0  0
  5  2  1  0  0  0  0
  6  7  1  0  0  0  0
  7  1  1  0  0  0  0
  8  6  2  0  0  0  0
  9  5  1  0  0  0  0
 10  2  1  0  0  0  0
 11  4  2  0  0  0  0
 12  9  2  0  0  0  0
 13  7  2  0  0  0  0
 14 13  1  0  0  0  0
 15 10  1  0  0  0  0
 16 12  1  0  0  0  0
 17 12  1  0  0  0  0
 18 15  1  0  0  0  0
 10 14  2  0  0  0  0
  4  8  1  0  0  0  0
M  END
>  <IDNUMBER> (0080-0036)
0080-0036

>  <available> (0080-0036)
811

>  <H_acceptor> (0080-0036)
3

>  <H_donor> (0080-0036)
0

>  <B_rotN> (0080-0036)
3

>  <N_O> (0080-0036)
3

>  <logP> (0080-0036)
3.63

>  <logD> (0080-0036)
4.24

>  <logSw> (0080-0036)
-4.86

>  <PSA> (0080-0036)
35.53

>  <Chiral_centers> (0080-0036)
0

>  <Name> (0080-0036)
7-methoxy-8-(3-methylbut-2-en-1-yl)-2H-chromen-2-one

>  <Smile> (0080-0036)
COc1c(c2c(C=CC(O2)=O)cc1)CC=C(C)C

>  <Collection> (0080-0036)
DC

>  <CLNUMBER> (0080-0036)
CV0119

>  <InChI Key> (0080-0036)
MBRLOUHOWLUMFF-UHFFFAOYSA-N

>  <PERCENTSP3> (0080-0036)
26.7

$$$$

  -ISIS-  -- StrEd -- 

 31 35  0  0  0  0  0  0  0  0999 V2000
    0.1120   -0.1407    0.0000 C   0  0  0  0  0  0  0  0  0  0  0  0
    0.1120    0.7718    0.0000 C   0  0  0  0  0  0  0  0  0  0  0  0
   -1.4834   -0.1407    0.0000 C   0  0  2  0  0  0  0  0  0  0  0  0
   -2.2869   -0.5939    0.0000 C   0  0  0  0  0  0  0  0  0  0  0  0
   -0.6858   -0.5939    0.0000 C   0  0  0  0  0  0  0  0  0  0  0  0
    1.7071    0.7718    0.0000 C   0  0  0  0  0  0  0  0  0  0  0  0
   -0.6858    1.2252    0.0000 C   0  0  0  0  0  0  0  0  0  0  0  0
    2.5336    1.2367    0.0000 C   0  0  0  0  0  0  0  0  0  0  0  0
   -1.4834    0.7718    0.0000 C   0  0  0  0  0  0  0  0  0  0  0  0
    3.9682    1.2539    0.0000 C   0  0  0  0  0  0  0  0  0  0  0  0
   -2.2869   -1.5008    0.0000 C   0  0  0  0  0  0  0  0  0  0  0  0
    0.8808   -0.7316    0.0000 C   0  0  0  0  0  0  0  0  0  0  0  0
    3.9567    2.0516    0.0000 C   0  0  0  0  0  0  0  0  0  0  0  0
    3.2223    2.5336    0.0000 O   0  0  0  0  0  0  0  0  0  0  0  0
    1.7071   -0.1407    0.0000 C   0  0  0  0  0  0  0  0  0  0  0  0
   -3.0846   -0.1407    0.0000 C   0  0  0  0  0  0  0  0  0  0  0  0
   -0.6858   -1.5008    0.0000 C   0  0  0  0  0  0  0  0  0  0  0  0
    2.5336    2.0229    0.0000 C   0  0  0  0  0  0  0  0  0  0  0  0
   -1.4834   -1.9598    0.0000 C   0  0  0  0  0  0  0  0  0  0  0  0
   -3.0846   -1.9598    0.0000 C   0  0  0  0  0  0  0  0  0  0  0  0
    0.1233   -1.3228    0.0000 O   0  0  0  0  0  0  0  0  0  0  0  0
    4.8348    2.4362    0.0000 O   0  0  0  0  0  0  0  0  0  0  0  0
    0.1806    2.0917    0.0000 C   0  0  0  0  0  0  0  0  0  0  0  0
   -0.6858    2.2582    0.0000 O   0  0  0  0  0  0  0  0  0  0  0  0
   -3.8824   -0.5939    0.0000 C   0  0  0  0  0  0  0  0  0  0  0  0
   -3.8824   -1.5008    0.0000 C   0  0  0  0  0  0  0  0  0  0  0  0
   -2.3098    0.7949    0.0000 C   0  0  0  0  0  0  0  0  0  0  0  0
   -4.8348   -2.0000    0.0000 O   0  0  0  0  0  0  0  0  0  0  0  0
   -2.3098   -2.5336    0.0000 H   0  0  0  0  0  0  0  0  0  0  0  0
   -0.6858    0.5651    0.0000 H   0  0  0  0  0  0  0  0  0  0  0  0
   -1.4834   -1.1335    0.0000 H   0  0  0  0  0  0  0  0  0  0  0  0
  2  1  1  0  0  0  0
  3  5  1  0  0  0  0
  4  3  1  0  0  0  0
  5  1  1  0  0  0  0
  6  2  1  0  0  0  0
  7  2  1  0  0  0  0
  6  8  1  0  0  0  0
  9  3  1  0  0  0  0
 10  8  2  0  0  0  0
 11 19  1  0  0  0  0
 12  1  1  0  0  0  0
 13 10  1  0  0  0  0
 14 18  1  0  0  0  0
 15 12  1  0  0  0  0
 16  4  1  0  0  0  0
 17  5  1  0  0  0  0
 18  8  1  0  0  0  0
 19 17  1  0  0  0  0
 20 11  1  0  0  0  0
  1 21  1  0  0  0  0
 22 13  2  0  0  0  0
  2 23  1  0  0  0  0
  7 24  1  0  0  0  0
 25 16  1  0  0  0  0
 26 20  1  0  0  0  0
  4 27  1  0  0  0  0
 26 28  1  0  0  0  0
 11 29  1  0  0  0  0
  5 30  1  0  0  0  0
  3 31  1  6  0  0  0
  6 15  1  0  0  0  0
  7  9  1  0  0  0  0
  4 11  1  0  0  0  0
 14 13  1  0  0  0  0
 25 26  1  0  0  0  0
M  END
>  <IDNUMBER> (0407-0024)
0407-0024

>  <available> (0407-0024)
1175

>  <H_acceptor> (0407-0024)
5

>  <H_donor> (0407-0024)
3

>  <B_rotN> (0407-0024)
4

>  <N_O> (0407-0024)
5

>  <logP> (0407-0024)
2.92

>  <logD> (0407-0024)
1.36

>  <logSw> (0407-0024)
-2.66

>  <PSA> (0407-0024)
86.99

>  <Chiral_centers> (0407-0024)
9

>  <Name> (0407-0024)
4-{3a,7,11-trihydroxy-9a,11a-dimethyl-hexadecahydro-1H-cyclopenta[a]phenanthren-1-yl}-2,5-dihydrofuran-2-one

>  <Smile> (0407-0024)
OC1CC2C(C3C(C4(O)CCC(C4(C)C(C3)O)C3=CC(=O)OC3)CC2)(C)CC1

>  <Collection> (0407-0024)
DC

>  <InChI Key> (0407-0024)
SHIBSTMRCDJXLN-QPFXLEGUSA-N

>  <PERCENTSP3> (0407-0024)
87

$$$$

  -ISIS-  -- StrEd -- 

 80 87  0  0  0  0  0  0  0  0999 V2000
    1.8972    2.0010    0.0000 C   0  0  0  0  0  0  0  0  0  0  0  0
    1.8972    2.9478    0.0000 C   0  0  0  0  0  0  0  0  0  0  0  0
    1.1111    1.5042    0.0000 C   0  0  0  0  0  0  0  0  0  0  0  0
    3.5577    2.9478    0.0000 C   0  0  0  0  0  0  0  0  0  0  0  0
   -0.5817    1.5042    0.0000 C   0  0  0  0  0  0  0  0  0  0  0  0
   -6.7423   -3.8706    0.0000 C   0  0  0  0  0  0  0  0  0  0  0  0
    6.6540    3.5655    0.0000 C   0  0  0  0  0  0  0  0  0  0  0  0
    2.7474    3.3728    0.0000 C   0  0  0  0  0  0  0  0  0  0  0  0
   -3.5655   -1.7528    0.0000 C   0  0  0  0  0  0  0  0  0  0  0  0
   -6.7423   -1.7528    0.0000 C   0  0  0  0  0  0  0  0  0  0  0  0
   -7.5766   -4.9056    0.0000 C   0  0  0  0  0  0  0  0  0  0  0  0
    5.8440    2.4826    0.0000 C   0  0  0  0  0  0  0  0  0  0  0  0
   -4.3758   -2.7315    0.0000 C   0  0  0  0  0  0  0  0  0  0  0  0
    0.2607    2.0010    0.0000 C   0  0  0  0  0  0  0  0  0  0  0  0
   -5.9720   -2.7315    0.0000 C   0  0  0  0  0  0  0  0  0  0  0  0
    4.3839    2.5386    0.0000 C   0  0  0  0  0  0  0  0  0  0  0  0
   -0.5817    0.5814    0.0000 C   0  0  0  0  0  0  0  0  0  0  0  0
   -9.0767   -4.9454    0.0000 C   0  0  0  0  0  0  0  0  0  0  0  0
    6.6540    1.4479    0.0000 C   0  0  0  0  0  0  0  0  0  0  0  0
   -7.5766   -2.8518    0.0000 O   0  0  0  0  0  0  0  0  0  0  0  0
    8.2104    3.5655    0.0000 O   0  0  0  0  0  0  0  0  0  0  0  0
   -4.3758   -0.6699    0.0000 O   0  0  0  0  0  0  0  0  0  0  0  0
   -6.7423   -2.8518    0.0000 O   0  0  0  0  0  0  0  0  0  0  0  0
   -1.3917    0.0761    0.0000 C   0  0  0  0  0  0  0  0  0  0  0  0
    5.2502    3.1162    0.0000 O   0  0  0  0  0  0  0  0  0  0  0  0
    8.2104    1.4479    0.0000 C   0  0  0  0  0  0  0  0  0  0  0  0
   -9.8868   -3.8706    0.0000 C   0  0  0  0  0  0  0  0  0  0  0  0
   -5.9720   -0.6699    0.0000 C   0  0  0  0  0  0  0  0  0  0  0  0
    1.1111    3.3728    0.0000 C   0  0  0  0  0  0  0  0  0  0  0  0
   -9.0767   -2.8518    0.0000 C   0  0  0  0  0  0  0  0  0  0  0  0
    9.0447    2.4826    0.0000 C   0  0  0  0  0  0  0  0  0  0  0  0
   -3.5655   -0.4052    0.0000 O   0  0  0  0  0  0  0  0  0  0  0  0
   -2.2182    0.5814    0.0000 C   0  0  0  0  0  0  0  0  0  0  0  0
    2.7474    1.5042    0.0000 C   0  0  0  0  0  0  0  0  0  0  0  0
    1.1111    0.5814    0.0000 C   0  0  0  0  0  0  0  0  0  0  0  0
    0.2607    2.9478    0.0000 C   0  0  0  0  0  0  0  0  0  0  0  0
    3.5577    2.0010    0.0000 C   0  0  0  0  0  0  0  0  0  0  0  0
   -1.3917    2.0010    0.0000 C   0  0  0  0  0  0  0  0  0  0  0  0
    0.2607    0.0761    0.0000 C   0  0  0  0  0  0  0  0  0  0  0  0
    4.3839    3.4052    0.0000 C   0  0  0  0  0  0  0  0  0  0  0  0
    2.7474    4.3519    0.0000 C   0  0  0  0  0  0  0  0  0  0  0  0
    4.3839    1.5760    0.0000 O   0  0  0  0  0  0  0  0  0  0  0  0
    3.5577    4.8491    0.0000 C   0  0  0  0  0  0  0  0  0  0  0  0
   -2.2182    1.5042    0.0000 C   0  0  0  0  0  0  0  0  0  0  0  0
   -4.3758   -3.3651    0.0000 O   0  0  0  0  0  0  0  0  0  0  0  0
   -7.5766   -5.5230    0.0000 O   0  0  0  0  0  0  0  0  0  0  0  0
    5.8440    1.2715    0.0000 O   0  0  0  0  0  0  0  0  0  0  0  0
   -5.9720   -2.0977    0.0000 O   0  0  0  0  0  0  0  0  0  0  0  0
   -9.0767   -4.2718    0.0000 O   0  0  0  0  0  0  0  0  0  0  0  0
    6.6540    2.1381    0.0000 O   0  0  0  0  0  0  0  0  0  0  0  0
    4.3839    4.3917    0.0000 C   0  0  0  0  0  0  0  0  0  0  0  0
   -9.9430   -2.8518    0.0000 O   0  0  0  0  0  0  0  0  0  0  0  0
    8.2104    0.8461    0.0000 O   0  0  0  0  0  0  0  0  0  0  0  0
    1.9212    1.0627    0.0000 C   0  0  0  0  0  0  0  0  0  0  0  0
    1.1111    2.4665    0.0000 C   0  0  0  0  0  0  0  0  0  0  0  0
   -0.6217    2.7713    0.0000 C   0  0  0  0  0  0  0  0  0  0  0  0
   -5.9720   -0.0360    0.0000 C   0  0  0  0  0  0  0  0  0  0  0  0
   -9.0767   -2.1778    0.0000 C   0  0  0  0  0  0  0  0  0  0  0  0
    9.0447    3.2368    0.0000 C   0  0  0  0  0  0  0  0  0  0  0  0
   -1.0067   -0.7905    0.0000 C   0  0  0  0  0  0  0  0  0  0  0  0
   -1.9532   -0.6699    0.0000 C   0  0  0  0  0  0  0  0  0  0  0  0
   -9.9430   -1.6968    0.0000 O   0  0  0  0  0  0  0  0  0  0  0  0
   -6.7423    0.4611    0.0000 O   0  0  0  0  0  0  0  0  0  0  0  0
    9.9430    3.5254    0.0000 O   0  0  0  0  0  0  0  0  0  0  0  0
    4.2074    5.4668    0.0000 C   0  0  0  0  0  0  0  0  0  0  0  0
    2.7878    5.5230    0.0000 C   0  0  0  0  0  0  0  0  0  0  0  0
   -6.7423   -0.9990    0.0000 H   0  0  0  0  0  0  0  0  0  0  0  0
   -9.8868   -4.5847    0.0000 H   0  0  0  0  0  0  0  0  0  0  0  0
   -6.7423   -4.6167    0.0000 H   0  0  0  0  0  0  0  0  0  0  0  0
   -5.9720   -3.3651    0.0000 H   0  0  0  0  0  0  0  0  0  0  0  0
   -4.3758   -1.9855    0.0000 H   0  0  0  0  0  0  0  0  0  0  0  0
    6.6540    4.1994    0.0000 H   0  0  0  0  0  0  0  0  0  0  0  0
   -9.0767   -3.4856    0.0000 H   0  0  0  0  0  0  0  0  0  0  0  0
   -3.5655   -2.4429    0.0000 H   0  0  0  0  0  0  0  0  0  0  0  0
    6.6540    0.8461    0.0000 H   0  0  0  0  0  0  0  0  0  0  0  0
    8.2104    2.2341    0.0000 H   0  0  0  0  0  0  0  0  0  0  0  0
   -9.0767   -5.5230    0.0000 H   0  0  0  0  0  0  0  0  0  0  0  0
   -7.5766   -4.1596    0.0000 H   0  0  0  0  0  0  0  0  0  0  0  0
    9.0447    1.7689    0.0000 H   0  0  0  0  0  0  0  0  0  0  0  0
   -5.9720   -1.2718    0.0000 H   0  0  0  0  0  0  0  0  0  0  0  0
  2  1  1  0  0  0  0
  3  1  1  0  0  0  0
  4 37  1  0  0  0  0
 14  5  1  0  0  0  0
  6 23  1  0  0  0  0
  7 25  1  0  0  0  0
  8  2  1  0  0  0  0
  9 32  1  0  0  0  0
 10 28  1  0  0  0  0
 11  6  1  0  0  0  0
 12  7  1  0  0  0  0
 13  9  1  0  0  0  0
 14  3  1  0  0  0  0
 15 13  1  0  0  0  0
  4 16  1  0  0  0  0
 17 39  1  0  0  0  0
 18 11  1  0  0  0  0
 19 12  1  0  0  0  0
 20  6  1  0  0  0  0
 21  7  1  0  0  0  0
 22  9  1  0  0  0  0
 23 10  1  0  0  0  0
 24 17  1  0  0  0  0
 25 16  1  0  0  0  0
 26 31  1  0  0  0  0
 27 30  1  0  0  0  0
 28 22  1  0  0  0  0
 29  2  2  0  0  0  0
 30 20  1  0  0  0  0
 31 21  1  0  0  0  0
 33 32  1  0  0  0  0
 33 24  1  0  0  0  0
 34  1  1  0  0  0  0
 35  3  1  0  0  0  0
 36 14  1  0  0  0  0
 37 34  1  0  0  0  0
 38  5  1  0  0  0  0
 39 35  1  0  0  0  0
 40  4  1  0  0  0  0
 41  8  1  0  0  0  0
 42 16  2  0  0  0  0
 43 41  1  0  0  0  0
 44 38  1  0  0  0  0
 45 13  1  0  0  0  0
 46 11  1  0  0  0  0
 12 47  1  0  0  0  0
 15 48  1  0  0  0  0
 18 49  1  0  0  0  0
 19 50  1  0  0  0  0
 51 40  1  0  0  0  0
 52 27  1  0  0  0  0
 53 26  1  0  0  0  0
  1 54  1  0  0  0  0
  3 55  1  0  0  0  0
  5 56  1  0  0  0  0
 57 28  1  0  0  0  0
 58 30  1  0  0  0  0
 31 59  1  0  0  0  0
 24 60  1  0  0  0  0
 61 24  1  0  0  0  0
 62 58  1  0  0  0  0
 63 57  1  0  0  0  0
 64 59  1  0  0  0  0
 43 65  1  0  0  0  0
 66 43  1  0  0  0  0
 10 67  1  0  0  0  0
 27 68  1  0  0  0  0
  6 69  1  0  0  0  0
 70 15  1  0  0  0  0
 13 71  1  0  0  0  0
 72  7  1  0  0  0  0
 30 73  1  0  0  0  0
 74  9  1  0  0  0  0
 75 19  1  0  0  0  0
 26 76  1  0  0  0  0
 77 18  1  0  0  0  0
 11 78  1  0  0  0  0
 79 31  1  0  0  0  0
 28 80  1  0  0  0  0
  8  4  1  0  0  0  0
 36 29  1  0  0  0  0
 17  5  1  0  0  0  0
 43 51  1  0  0  0  0
 33 44  1  0  0  0  0
 19 26  1  0  0  0  0
 10 15  1  0  0  0  0
 27 18  1  0  0  0  0
M  END
>  <IDNUMBER> (N025-0034)
N025-0034

>  <available> (N025-0034)
364

>  <H_acceptor> (N025-0034)
18

>  <H_donor> (N025-0034)
11

>  <B_rotN> (N025-0034)
21

>  <N_O> (N025-0034)
18

>  <logP> (N025-0034)
1.02

>  <logD> (N025-0034)
0.71

>  <logSw> (N025-0034)
-5.46

>  <PSA> (N025-0034)
294.98

>  <Chiral_centers> (N025-0034)
23

>  <Name> (N025-0034)
3,4,5-trihydroxy-6-(hydroxymethyl)oxan-2-yl 10-{[3,4-dihydroxy-6-(hydroxymethyl)-5-{[3,4,5-trihydroxy-6-(hydroxymethyl)oxan-2-yl]oxy}oxan-2-yl]oxy}-2,2,6a,6b,9,9,12a-heptamethyl-1,2,3,4,4a,5,6,6a,6b,7
,8,8a,9,10,11,12,12a,12b,13,14b-icosahydropicene-4a-carboxylate

>  <Smile> (N025-0034)
CC1(CC2C3C(C)(CCC2(CC1)C(OC1OC(C(C(C1O)O)O)CO)=O)C1(CCC2C(C)(CCC(C2(C)C)OC2OC(C(OC4OC(C(C(C4O)O)O)CO)C(C2O)O)CO)C1CC=3)C)C

>  <Collection> (N025-0034)
DC

>  <InChI Key> (N025-0034)
NAIMCEFAGOEXSH-UHFFFAOYSA-N

>  <PERCENTSP3> (N025-0034)
93.8

$$$$

  -ISIS-  -- StrEd -- 

 26 29  0  0  0  0  0  0  0  0999 V2000
    1.9171    1.2451    0.0000 C   0  0  0  0  0  0  0  0  0  0  0  0
   -0.6719   -0.2489    0.0000 C   0  0  0  0  0  0  0  0  0  0  0  0
   -0.6719   -1.2451    0.0000 C   0  0  0  0  0  0  0  0  0  0  0  0
    1.9171    0.2491    0.0000 C   0  0  0  0  0  0  0  0  0  0  0  0
    0.1738    0.2491    0.0000 C   0  0  0  0  0  0  0  0  0  0  0  0
    1.0712   -0.2489    0.0000 C   0  0  0  0  0  0  0  0  0  0  0  0
    2.8663    1.5459    0.0000 C   0  0  0  0  0  0  0  0  0  0  0  0
    0.1738   -1.7430    0.0000 C   0  0  0  0  0  0  0  0  0  0  0  0
    1.0453    1.7432    0.0000 C   0  0  0  0  0  0  0  0  0  0  0  0
    1.0712   -1.2451    0.0000 C   0  0  0  0  0  0  0  0  0  0  0  0
    0.1738    1.2451    0.0000 C   0  0  0  0  0  0  0  0  0  0  0  0
    2.8663   -0.0518    0.0000 C   0  0  0  0  0  0  0  0  0  0  0  0
   -1.5435    0.2491    0.0000 C   0  0  0  0  0  0  0  0  0  0  0  0
    3.4370    0.7730    0.0000 C   0  0  0  0  0  0  0  0  0  0  0  0
    3.2138    2.4903    0.0000 C   0  0  0  0  0  0  0  0  0  0  0  0
   -1.5435   -1.7430    0.0000 C   0  0  0  0  0  0  0  0  0  0  0  0
   -3.3124   -2.7652    0.0000 C   0  0  0  0  0  0  0  0  0  0  0  0
   -3.2865   -1.7690    0.0000 O   0  0  0  0  0  0  0  0  0  0  0  0
   -2.4149   -1.2451    0.0000 C   0  0  0  0  0  0  0  0  0  0  0  0
   -4.1840   -3.2632    0.0000 O   0  0  0  0  0  0  0  0  0  0  0  0
    4.1840    2.6873    0.0000 O   0  0  0  0  0  0  0  0  0  0  0  0
   -2.4149   -0.2489    0.0000 C   0  0  0  0  0  0  0  0  0  0  0  0
    1.9171    2.2672    0.0000 C   0  0  0  0  0  0  0  0  0  0  0  0
   -0.6719    0.7470    0.0000 C   0  0  0  0  0  0  0  0  0  0  0  0
   -2.4408   -3.2632    0.0000 C   0  0  0  0  0  0  0  0  0  0  0  0
    2.5654    3.2632    0.0000 C   0  0  0  0  0  0  0  0  0  0  0  0
  5  2  1  0  0  0  0
  3  2  1  0  0  0  0
  4  1  1  0  0  0  0
  5 11  1  0  0  0  0
  6  4  1  0  0  0  0
  7  1  1  0  0  0  0
  8 10  1  0  0  0  0
  9  1  1  0  0  0  0
 10  6  1  0  0  0  0
 11  9  1  0  0  0  0
 12  4  1  0  0  0  0
 13  2  1  0  0  0  0
 14  7  1  0  0  0  0
  7 15  1  0  0  0  0
 16  3  1  0  0  0  0
 17 18  1  0  0  0  0
 19 18  1  0  0  0  0
 19 22  1  0  0  0  0
 20 17  2  0  0  0  0
 21 15  2  0  0  0  0
 22 13  1  0  0  0  0
  1 23  1  0  0  0  0
  2 24  1  0  0  0  0
 25 17  1  0  0  0  0
 26 15  1  0  0  0  0
 12 14  1  0  0  0  0
  6  5  1  0  0  0  0
  8  3  2  0  0  0  0
 19 16  1  0  0  0  0
M  END
>  <IDNUMBER> (N039-0043)
N039-0043

>  <available> (N039-0043)
295

>  <H_acceptor> (N039-0043)
3

>  <H_donor> (N039-0043)
0

>  <B_rotN> (N039-0043)
3

>  <N_O> (N039-0043)
3

>  <logP> (N039-0043)
3.86

>  <logD> (N039-0043)
4.97

>  <logSw> (N039-0043)
-5.92

>  <PSA> (N039-0043)
43.37

>  <Chiral_centers> (N039-0043)
7

>  <Name> (N039-0043)
1-acetyl-9a,11a-dimethyl-1H,2H,3H,3aH,3bH,4H,6H,7H,8H,9H,9aH,9bH,10H,11H,11aH-cyclopenta[a]phenanthren-7-yl acetate

>  <Smile> (N039-0043)
CC(C1C2(C)CCC3C4(C)C(=CCC3C2CC1)CC(OC(=O)C)CC4)=O

>  <Collection> (N039-0043)
DC

>  <InChI Key> (N039-0043)
CRRKVZVYZQXICQ-UHFFFAOYSA-N

>  <PERCENTSP3> (N039-0043)
82.6

$$$$

  -ISIS-  -- StrEd -- 

 38 41  0  0  1  0  0  0  0  0999 V2000
    0.3851    1.3149    0.0000 C   0  0  0  0  0  0  0  0  0  0  0  0
    0.3851    2.2145    0.0000 C   0  0  0  0  0  0  0  0  0  0  0  0
   -0.4000    0.8805    0.0000 C   0  0  0  0  0  0  0  0  0  0  0  0
   -1.1928    1.3149    0.0000 C   0  0  0  0  0  0  0  0  0  0  0  0
    1.2084   -3.4416    0.0000 C   0  0  0  0  0  0  0  0  0  0  0  0
   -0.4000    2.6718    0.0000 O   0  0  0  0  0  0  0  0  0  0  0  0
   -1.1928    2.2145    0.0000 C   0  0  0  0  0  0  0  0  0  0  0  0
    0.4538   -4.3944    0.0000 C   0  0  0  0  0  0  0  0  0  0  0  0
    1.1700    0.8423    0.0000 O   0  0  0  0  0  0  0  0  0  0  0  0
   -1.0253   -4.3944    0.0000 C   0  0  0  0  0  0  0  0  0  0  0  0
    0.4538   -2.4506    0.0000 O   0  0  0  0  0  0  0  0  0  0  0  0
   -1.7573   -3.4188    0.0000 C   0  0  0  0  0  0  0  0  0  0  0  0
   -1.9781    0.8805    0.0000 C   0  0  0  0  0  0  0  0  0  0  0  0
   -1.0100   -2.4506    0.0000 C   0  0  0  0  0  0  0  0  0  0  0  0
    1.1321    2.6718    0.0000 C   0  0  0  0  0  0  0  0  0  0  0  0
   -1.9781    2.6718    0.0000 C   0  0  0  0  0  0  0  0  0  0  0  0
   -2.7479    1.3149    0.0000 C   0  0  0  0  0  0  0  0  0  0  0  0
    1.1321    3.5484    0.0000 C   0  0  0  0  0  0  0  0  0  0  0  0
    1.9173    4.0060    0.0000 C   0  0  0  0  0  0  0  0  0  0  0  0
   -0.4000   -0.0342    0.0000 O   0  0  0  0  0  0  0  0  0  0  0  0
   -2.7479    2.2145    0.0000 C   0  0  0  0  0  0  0  0  0  0  0  0
    2.7099    3.5484    0.0000 C   0  0  0  0  0  0  0  0  0  0  0  0
    1.9173    2.2145    0.0000 C   0  0  0  0  0  0  0  0  0  0  0  0
    2.7099    2.6718    0.0000 C   0  0  0  0  0  0  0  0  0  0  0  0
    0.4385   -4.9967    0.0000 O   0  0  0  0  0  0  0  0  0  0  0  0
   -1.0253   -3.7542    0.0000 O   0  0  0  0  0  0  0  0  0  0  0  0
   -1.9781   -0.0342    0.0000 O   0  0  0  0  0  0  0  0  0  0  0  0
   -1.7573   -2.7479    0.0000 O   0  0  0  0  0  0  0  0  0  0  0  0
    1.9019    4.9967    0.0000 O   0  0  0  0  0  0  0  0  0  0  0  0
   -1.0100   -1.8332    0.0000 C   0  0  0  0  0  0  0  0  0  0  0  0
    3.5103    4.0060    0.0000 O   0  0  0  0  0  0  0  0  0  0  0  0
   -3.5103    2.6718    0.0000 O   0  0  0  0  0  0  0  0  0  0  0  0
   -2.4507   -1.8483    0.0000 O   0  0  0  0  0  0  0  0  0  0  0  0
   -1.7723   -4.0820    0.0000 H   0  0  0  0  0  0  0  0  0  0  0  0
   -1.0253   -4.9737    0.0000 H   0  0  0  0  0  0  0  0  0  0  0  0
    0.4385   -3.6627    0.0000 H   0  0  0  0  0  0  0  0  0  0  0  0
    1.2084   -4.0971    0.0000 H   0  0  0  0  0  0  0  0  0  0  0  0
   -1.0100   -2.9841    0.0000 H   0  0  0  0  0  0  0  0  0  0  0  0
  2  1  2  0  0  0  0
  3  1  1  0  0  0  0
  4  3  1  0  0  0  0
  5  9  1  0  0  0  0
  6  2  1  0  0  0  0
  7  4  2  0  0  0  0
  8  5  1  0  0  0  0
  9  1  1  0  0  0  0
 10  8  1  0  0  0  0
 11  5  1  0  0  0  0
 12 14  1  0  0  0  0
 13  4  1  0  0  0  0
 14 11  1  0  0  0  0
 15  2  1  0  0  0  0
 16  7  1  0  0  0  0
 17 13  2  0  0  0  0
 18 15  2  0  0  0  0
 19 18  1  0  0  0  0
 20  3  2  0  0  0  0
 21 17  1  0  0  0  0
 22 24  1  0  0  0  0
 23 15  1  0  0  0  0
 24 23  2  0  0  0  0
 25  8  1  0  0  0  0
 10 26  1  0  0  0  0
 27 13  1  0  0  0  0
 12 28  1  0  0  0  0
 29 19  1  0  0  0  0
 30 14  1  0  0  0  0
 31 22  1  0  0  0  0
 32 21  1  0  0  0  0
 33 30  1  0  0  0  0
 34 12  1  0  0  0  0
 35 10  1  0  0  0  0
  8 36  1  0  0  0  0
 37  5  1  0  0  0  0
 14 38  1  0  0  0  0
  6  7  1  0  0  0  0
 12 10  1  0  0  0  0
 21 16  2  0  0  0  0
 19 22  2  0  0  0  0
M  END
>  <IDNUMBER> (0407-0014)
0407-0014

>  <available> (0407-0014)
296

>  <H_acceptor> (0407-0014)
12

>  <H_donor> (0407-0014)
8

>  <B_rotN> (0407-0014)
12

>  <N_O> (0407-0014)
12

>  <logP> (0407-0014)
-0.23

>  <logD> (0407-0014)
-2.67

>  <logSw> (0407-0014)
-2.05

>  <PSA> (0407-0014)
206.6

>  <Chiral_centers> (0407-0014)
5

>  <Name> (0407-0014)
2-(3,4-dihydroxyphenyl)-5,7-dihydroxy-3-{[3,4,5-trihydroxy-6-(hydroxymethyl)oxan-2-yl]oxy}-4H-chromen-4-one

>  <Smile> (0407-0014)
OCC1OC(OC2C(c3c(OC=2c2cc(c(cc2)O)O)cc(cc3O)O)=O)C(O)C(C1O)O

>  <Collection> (0407-0014)
DC

>  <InChI Key> (0407-0014)
OVSQVDMCBVZWGM-UHFFFAOYSA-N

>  <PERCENTSP3> (0407-0014)
28.6

$$$$

  -ISIS-  -- StrEd -- 

 45 51  0  0  0  0  0  0  0  0999 V2000
    3.8417   -0.0576    0.0000 C   0  0  0  0  0  0  0  0  0  0  0  0
    1.3548   -0.5413    0.0000 C   0  0  0  0  0  0  0  0  0  0  0  0
    3.8417    0.8950    0.0000 C   0  0  0  0  0  0  0  0  0  0  0  0
    1.3548   -1.5032    0.0000 C   0  0  0  0  0  0  0  0  0  0  0  0
    2.1720   -0.0576    0.0000 C   0  0  2  0  0  0  0  0  0  0  0  0
    2.9988   -0.5413    0.0000 C   0  0  1  0  0  0  0  0  0  0  0  0
   -3.4821   -3.3502    0.0000 C   0  0  1  0  0  0  0  0  0  0  0  0
   -4.1224   -2.5542    0.0000 C   0  0  2  0  0  0  0  0  0  0  0  0
    5.0378    2.1587    0.0000 C   0  0  0  0  0  0  0  0  0  0  0  0
    4.7310    1.1504    0.0000 C   0  0  0  0  0  0  0  0  0  0  0  0
   -5.0378   -3.9272    0.0000 C   0  0  0  0  0  0  0  0  0  0  0  0
   -5.0847   -2.9134    0.0000 O   0  0  0  0  0  0  0  0  0  0  0  0
   -4.0549   -4.2087    0.0000 O   0  0  0  0  0  0  0  0  0  0  0  0
   -2.0884   -2.2423    0.0000 C   0  0  1  0  0  0  0  0  0  0  0  0
   -2.4632   -3.1940    0.0000 C   0  0  0  0  0  0  0  0  0  0  0  0
   -2.7283   -1.4412    0.0000 O   0  0  0  0  0  0  0  0  0  0  0  0
    4.4347    2.9648    0.0000 C   0  0  0  0  0  0  0  0  0  0  0  0
   -3.7480   -1.5969    0.0000 C   0  0  2  0  0  0  0  0  0  0  0  0
    5.0378    3.8495    0.0000 C   0  0  0  0  0  0  0  0  0  0  0  0
    4.7310   -0.3539    0.0000 C   0  0  0  0  0  0  0  0  0  0  0  0
    2.9988    1.3787    0.0000 C   0  0  0  0  0  0  0  0  0  0  0  0
    0.4862   -1.9460    0.0000 C   0  0  0  0  0  0  0  0  0  0  0  0
    0.4862   -0.0576    0.0000 C   0  0  0  0  0  0  0  0  0  0  0  0
    2.1720    0.8950    0.0000 C   0  0  0  0  0  0  0  0  0  0  0  0
    6.0525    3.5321    0.0000 O   0  0  0  0  0  0  0  0  0  0  0  0
    5.2772    0.4164    0.0000 C   0  0  0  0  0  0  0  0  0  0  0  0
    2.9988   -1.5032    0.0000 C   0  0  0  0  0  0  0  0  0  0  0  0
    2.1720   -1.9460    0.0000 C   0  0  0  0  0  0  0  0  0  0  0  0
    6.0525    2.5023    0.0000 C   0  0  0  0  0  0  0  0  0  0  0  0
    1.3548    0.4164    0.0000 C   0  0  0  0  0  0  0  0  0  0  0  0
   -1.0586   -2.0861    0.0000 O   0  0  0  0  0  0  0  0  0  0  0  0
   -0.2836   -1.5032    0.0000 C   0  0  0  0  0  0  0  0  0  0  0  0
    4.6952    4.9106    0.0000 O   0  0  0  0  0  0  0  0  0  0  0  0
    3.8417   -1.0710    0.0000 O   0  0  0  0  0  0  0  0  0  0  0  0
    1.3548   -2.7522    0.0000 O   0  0  0  0  0  0  0  0  0  0  0  0
    0.4504    0.9786    0.0000 O   0  0  0  0  0  0  0  0  0  0  0  0
   -0.2836   -0.5413    0.0000 C   0  0  0  0  0  0  0  0  0  0  0  0
    3.8417    1.8362    0.0000 C   0  0  0  0  0  0  0  0  0  0  0  0
   -4.7310   -4.9106    0.0000 C   0  0  0  0  0  0  0  0  0  0  0  0
   -6.0525   -4.1463    0.0000 C   0  0  0  0  0  0  0  0  0  0  0  0
   -4.3980   -0.7903    0.0000 C   0  0  0  0  0  0  0  0  0  0  0  0
    2.9988    0.3016    0.0000 H   0  0  0  0  0  0  0  0  0  0  0  0
    2.1720   -0.9777    0.0000 H   0  0  0  0  0  0  0  0  0  0  0  0
   -5.1214   -1.8206    0.0000 H   0  0  0  0  0  0  0  0  0  0  0  0
   -3.2179   -4.3488    0.0000 H   0  0  0  0  0  0  0  0  0  0  0  0
  2  5  1  0  0  0  0
  3  1  1  0  0  0  0
  4 28  1  0  0  0  0
  5  6  1  0  0  0  0
  6  1  1  0  0  0  0
  7 15  1  0  0  0  0
  8 18  1  0  0  0  0
  9 10  1  0  0  0  0
 10  3  1  0  0  0  0
 11 13  1  0  0  0  0
 12  8  1  0  0  0  0
 13  7  1  0  0  0  0
 14 31  1  1  0  0  0
 15 14  1  0  0  0  0
 16 14  1  0  0  0  0
 17  9  2  0  0  0  0
 18 16  1  0  0  0  0
 19 17  1  0  0  0  0
 20  1  1  0  0  0  0
 21  3  1  0  0  0  0
 22  4  1  0  0  0  0
 23  2  1  0  0  0  0
 24  5  1  0  0  0  0
 25 29  1  0  0  0  0
 26 20  1  0  0  0  0
 27  6  1  0  0  0  0
 28 27  1  0  0  0  0
 29  9  1  0  0  0  0
 30  2  1  0  0  0  0
 31 32  1  0  0  0  0
 32 22  1  0  0  0  0
 33 19  2  0  0  0  0
 34  1  1  0  0  0  0
 35  4  1  0  0  0  0
 36 30  2  0  0  0  0
 37 23  1  0  0  0  0
 38  3  1  0  0  0  0
 39 11  1  0  0  0  0
 40 11  1  0  0  0  0
 18 41  1  1  0  0  0
  6 42  1  1  0  0  0
  5 43  1  6  0  0  0
  8 44  1  1  0  0  0
  7 45  1  1  0  0  0
 26 10  1  0  0  0  0
 24 21  1  0  0  0  0
  2  4  1  0  0  0  0
 32 37  1  0  0  0  0
 19 25  1  0  0  0  0
  7  8  1  0  0  0  0
 11 12  1  0  0  0  0
M  END
>  <IDNUMBER> (0449-0087)
0449-0087

>  <available> (0449-0087)
58

>  <H_acceptor> (0449-0087)
9

>  <H_donor> (0449-0087)
2

>  <B_rotN> (0449-0087)
6

>  <N_O> (0449-0087)
9

>  <logP> (0449-0087)
1.88

>  <logD> (0449-0087)
1.5

>  <logSw> (0449-0087)
-4.68

>  <PSA> (0449-0087)
120.75

>  <Chiral_centers> (0449-0087)
12

>  <Name> (0449-0087)
3a,5a-dihydroxy-11a-methyl-1-(5-oxo-2,5-dihydrofuran-3-yl)-7-({2,2,4-trimethyl-hexahydro-[1,3]dioxolo[4,5-c]pyran-6-yl}oxy)-hexadecahydro-1H-cyclopenta[a]phenanthrene-9a-carbaldehyde

>  <Smile> (0449-0087)
CC1C2C(CC(OC3CC4(C(C5C(C6(O)CCC(C6(C)CC5)C5=CC(OC5)=O)CC4)(CC3)C=O)O)O1)OC(O2)(C)C

>  <Collection> (0449-0087)
DC

>  <InChI Key> (0449-0087)
FDZGGUZEWBKPAY-XKMSXWJESA-N

>  <PERCENTSP3> (0449-0087)
87.5

$$$$

  -ISIS-  -- StrEd -- 

 26 30  0  0  0  0  0  0  0  0999 V2000
   -0.7120    1.3828    0.0000 C   0  0  0  0  0  0  0  0  0  0  0  0
    1.0414   -1.6357    0.0000 C   0  0  0  0  0  0  0  0  0  0  0  0
   -0.7413    2.3711    0.0000 C   0  0  0  0  0  0  0  0  0  0  0  0
    1.0414   -0.6178    0.0000 C   0  0  0  0  0  0  0  0  0  0  0  0
   -1.6769    1.1000    0.0000 N   0  0  0  0  0  0  0  0  0  0  0  0
    0.1588    0.9061    0.0000 C   0  0  0  0  0  0  0  0  0  0  0  0
    1.0414    1.3828    0.0000 N   0  0  0  0  0  0  0  0  0  0  0  0
    1.9181   -0.0823    0.0000 C   0  0  0  0  0  0  0  0  0  0  0  0
    1.8887   -2.1180    0.0000 C   0  0  0  0  0  0  0  0  0  0  0  0
    1.9181    0.9061    0.0000 C   0  0  0  0  0  0  0  0  0  0  0  0
    0.1588   -0.1060    0.0000 C   0  0  0  0  0  0  0  0  0  0  0  0
   -1.6769    2.6830    0.0000 C   0  0  0  0  0  0  0  0  0  0  0  0
   -2.2417    1.9240    0.0000 C   0  0  0  0  0  0  0  0  0  0  0  0
    0.1588   -2.1709    0.0000 C   0  0  0  0  0  0  0  0  0  0  0  0
    2.7886   -1.6063    0.0000 O   0  0  0  0  0  0  0  0  0  0  0  0
    0.1588    2.8831    0.0000 C   0  0  0  0  0  0  0  0  0  0  0  0
    2.7886   -0.6178    0.0000 C   0  0  0  0  0  0  0  0  0  0  0  0
    1.0414    2.4006    0.0000 C   0  0  0  0  0  0  0  0  0  0  0  0
   -0.7120   -1.6943    0.0000 O   0  0  0  0  0  0  0  0  0  0  0  0
    0.1942   -3.1596    0.0000 O   0  0  0  0  0  0  0  0  0  0  0  0
   -2.1005    3.5891    0.0000 C   0  0  0  0  0  0  0  0  0  0  0  0
   -3.2301    2.0121    0.0000 C   0  0  0  0  0  0  0  0  0  0  0  0
    3.6538   -0.1060    0.0000 C   0  0  0  0  0  0  0  0  0  0  0  0
   -0.6530   -3.6714    0.0000 C   0  0  0  0  0  0  0  0  0  0  0  0
   -3.0890    3.6714    0.0000 C   0  0  0  0  0  0  0  0  0  0  0  0
   -3.6538    2.9124    0.0000 C   0  0  0  0  0  0  0  0  0  0  0  0
  4  2  1  0  0  0  0
  3  1  2  0  0  0  0
  4 11  1  0  0  0  0
  5  1  1  0  0  0  0
  6  1  1  0  0  0  0
  7  6  1  0  0  0  0
  8  4  1  0  0  0  0
  9  2  2  0  0  0  0
 10  7  1  0  0  0  0
 11  6  1  0  0  0  0
 12  3  1  0  0  0  0
 13  5  1  0  0  0  0
 14  2  1  0  0  0  0
 15 17  1  0  0  0  0
 16  3  1  0  0  0  0
 17  8  1  0  0  0  0
 18  7  1  0  0  0  0
 19 14  2  0  0  0  0
 20 14  1  0  0  0  0
 21 12  1  0  0  0  0
 22 13  1  0  0  0  0
 17 23  1  0  0  0  0
 24 20  1  0  0  0  0
 25 21  2  0  0  0  0
 26 22  2  0  0  0  0
 12 13  2  0  0  0  0
 16 18  1  0  0  0  0
 10  8  1  0  0  0  0
 25 26  1  0  0  0  0
 15  9  1  0  0  0  0
M  END
>  <IDNUMBER> (0080-0040)
0080-0040

>  <available> (0080-0040)
280

>  <H_acceptor> (0080-0040)
4

>  <H_donor> (0080-0040)
1

>  <B_rotN> (0080-0040)
2

>  <N_O> (0080-0040)
5

>  <logP> (0080-0040)
2.56

>  <logD> (0080-0040)
3.01

>  <logSw> (0080-0040)
-4.41

>  <PSA> (0080-0040)
54.56

>  <Chiral_centers> (0080-0040)
4

>  <Name> (0080-0040)
methyl 4-methyl-4a,5,7,8,13,13b,14,14a-octahydro-4H-pyrano[4',3':4,5]pyrido[2,1-a]beta-carboline-1-carboxylate

>  <Smile> (0080-0040)
c1cc2[nH]c3C4N(CC5C(C(=COC5C)C(=O)OC)C4)CCc3c2cc1

>  <Collection> (0080-0040)
DC

>  <InChI Key> (0080-0040)
GRTOGORTSDXSFK-UHFFFAOYSA-N

>  <PERCENTSP3> (0080-0040)
47.6

$$$$

  -ISIS-  -- StrEd -- 

 34 38  0  0  0  0  0  0  0  0999 V2000
    1.2814   -0.7838    0.0000 C   0  0  1  0  0  0  0  0  0  0  0  0
    0.4187   -1.2879    0.0000 C   0  0  1  0  0  0  0  0  0  0  0  0
   -1.3543   -1.2879    0.0000 C   0  0  2  0  0  0  0  0  0  0  0  0
    3.0458    0.2415    0.0000 C   0  0  0  0  0  0  0  0  0  0  0  0
    2.1528    0.7326    0.0000 C   0  0  0  0  0  0  0  0  0  0  0  0
    1.2814    0.2415    0.0000 C   0  0  0  0  0  0  0  0  0  0  0  0
   -0.4826   -0.7838    0.0000 C   0  0  0  0  0  0  0  0  0  0  0  0
   -1.3543   -2.3216    0.0000 C   0  0  0  0  0  0  0  0  0  0  0  0
   -2.2469   -2.8257    0.0000 C   0  0  1  0  0  0  0  0  0  0  0  0
    2.3879    1.7365    0.0000 C   0  0  0  0  0  0  0  0  0  0  0  0
    3.9684   -0.2627    0.0000 C   0  0  0  0  0  0  0  0  0  0  0  0
    2.1528   -1.2879    0.0000 C   0  0  0  0  0  0  0  0  0  0  0  0
    0.4100   -2.3216    0.0000 C   0  0  0  0  0  0  0  0  0  0  0  0
   -3.1270   -2.3216    0.0000 C   0  0  0  0  0  0  0  0  0  0  0  0
    3.0458   -0.7838    0.0000 C   0  0  0  0  0  0  0  0  0  0  0  0
    3.7719    0.8778    0.0000 C   0  0  0  0  0  0  0  0  0  0  0  0
    0.4016    0.7541    0.0000 C   0  0  0  0  0  0  0  0  0  0  0  0
   -2.2469   -0.7838    0.0000 C   0  0  0  0  0  0  0  0  0  0  0  0
   -0.4826    0.2415    0.0000 C   0  0  0  0  0  0  0  0  0  0  0  0
   -0.4826   -2.8257    0.0000 C   0  0  0  0  0  0  0  0  0  0  0  0
    3.3746    1.8305    0.0000 C   0  0  0  0  0  0  0  0  0  0  0  0
    1.7428    2.5054    0.0000 C   0  0  0  0  0  0  0  0  0  0  0  0
   -3.9770   -2.8342    0.0000 N   0  0  0  0  0  0  0  0  0  0  0  0
   -3.1270   -1.2879    0.0000 C   0  0  0  0  0  0  0  0  0  0  0  0
    4.0197   -1.2579    0.0000 O   0  0  0  0  0  0  0  0  0  0  0  0
    2.0931    3.4409    0.0000 C   0  0  0  0  0  0  0  0  0  0  0  0
    1.2814   -1.7192    0.0000 C   0  0  0  0  0  0  0  0  0  0  0  0
    4.8399    0.1986    0.0000 O   0  0  0  0  0  0  0  0  0  0  0  0
    0.4100   -0.3736    0.0000 C   0  0  0  0  0  0  0  0  0  0  0  0
   -1.3543   -0.4035    0.0000 C   0  0  0  0  0  0  0  0  0  0  0  0
   -4.8399   -2.3514    0.0000 O   0  0  0  0  0  0  0  0  0  0  0  0
   -1.5805   -3.4409    0.0000 C   0  0  0  0  0  0  0  0  0  0  0  0
   -2.9132   -3.4409    0.0000 C   0  0  0  0  0  0  0  0  0  0  0  0
    0.7605    2.3433    0.0000 C   0  0  0  0  0  0  0  0  0  0  0  0
  2  1  1  0  0  0  0
  7  3  1  0  0  0  0
  4 15  1  0  0  0  0
  6  5  1  0  0  0  0
  6  1  1  0  0  0  0
  7  2  1  0  0  0  0
  8 20  1  0  0  0  0
  9  8  1  0  0  0  0
 10  5  1  0  0  0  0
  4 11  1  0  0  0  0
 12  1  1  0  0  0  0
 13  2  1  0  0  0  0
 14  9  1  0  0  0  0
 15 12  1  0  0  0  0
 16  4  1  0  0  0  0
 17  6  1  0  0  0  0
 18  3  1  0  0  0  0
 19 17  1  0  0  0  0
 20 13  1  0  0  0  0
 21 10  1  0  0  0  0
 10 22  1  0  0  0  0
 23 14  2  0  0  0  0
 24 18  1  0  0  0  0
 25 11  2  0  0  0  0
 26 22  2  0  0  0  0
  1 27  1  6  0  0  0
 28 11  1  0  0  0  0
  2 29  1  1  0  0  0
  3 30  1  1  0  0  0
 31 23  1  0  0  0  0
  9 32  1  6  0  0  0
  9 33  1  1  0  0  0
 34 22  1  0  0  0  0
  4  5  1  0  0  0  0
  7 19  1  0  0  0  0
 16 21  1  0  0  0  0
  3  8  1  0  0  0  0
 24 14  1  0  0  0  0
M  END
>  <IDNUMBER> (N069-0074)
N069-0074

>  <available> (N069-0074)
488

>  <H_acceptor> (N069-0074)
4

>  <H_donor> (N069-0074)
2

>  <B_rotN> (N069-0074)
4

>  <N_O> (N069-0074)
4

>  <logP> (N069-0074)
6.38

>  <logD> (N069-0074)
5.5

>  <logSw> (N069-0074)
-7.5

>  <PSA> (N069-0074)
69.89

>  <Chiral_centers> (N069-0074)
9

>  <Name> (N069-0074)
(9E)-9-(hydroxyimino)-5a,5b,8,8,11a-pentamethyl-1-(prop-1-en-2-yl)-icosahydro-1H-cyclopenta[a]chrysene-3a-carboxylic acid

>  <Smile> (N069-0074)
CC(C1C2C(CCC3(C2CCC2C3(C)CCC3C2(C)CCC(C3(C)C)=NO)C)(C(=O)O)CC1)=C

>  <Collection> (N069-0074)
DC

>  <InChI Key> (N069-0074)
YEKUREUPHOHRBM-BGGSGXPBSA-N

>  <PERCENTSP3> (N069-0074)
86.7

$$$$

  -ISIS-  -- StrEd -- 

 35 39  0  0  0  0  0  0  0  0999 V2000
    0.5266   -0.1172    0.0000 C   0  0  0  0  0  0  0  0  0  0  0  0
   -0.2000   -1.3798    0.0000 C   0  0  1  0  0  0  0  0  0  0  0  0
    0.5266   -0.9606    0.0000 C   0  0  2  0  0  0  0  0  0  0  0  0
   -1.6723   -1.3798    0.0000 C   0  0  2  0  0  0  0  0  0  0  0  0
   -0.9359   -0.9606    0.0000 C   0  0  0  0  0  0  0  0  0  0  0  0
   -0.2000    0.3412    0.0000 C   0  0  0  0  0  0  0  0  0  0  0  0
   -0.9359   -0.1172    0.0000 C   0  0  0  0  0  0  0  0  0  0  0  0
   -1.6723   -2.3304    0.0000 C   0  0  0  0  0  0  0  0  0  0  0  0
    1.4771    0.5363    0.0000 C   0  0  2  0  0  0  0  0  0  0  0  0
   -2.4572   -2.8081    0.0000 C   0  0  1  0  0  0  0  0  0  0  0  0
    2.3986    2.1158    0.0000 C   0  0  1  0  0  0  0  0  0  0  0  0
    1.4771    1.5893    0.0000 C   0  0  0  0  0  0  0  0  0  0  0  0
    2.3986    0.0097    0.0000 C   0  0  1  0  0  0  0  0  0  0  0  0
   -0.2000   -2.3304    0.0000 C   0  0  0  0  0  0  0  0  0  0  0  0
    3.2908    2.7252    0.0000 C   0  0  0  0  0  0  0  0  0  0  0  0
   -2.4572   -0.9606    0.0000 C   0  0  0  0  0  0  0  0  0  0  0  0
    1.4771   -1.5894    0.0000 C   0  0  0  0  0  0  0  0  0  0  0  0
   -3.2032   -2.3304    0.0000 C   0  0  0  0  0  0  0  0  0  0  0  0
   -0.9359   -2.8081    0.0000 C   0  0  0  0  0  0  0  0  0  0  0  0
   -1.8136    0.3412    0.0000 O   0  0  0  0  0  0  0  0  0  0  0  0
    2.3986   -1.0630    0.0000 C   0  0  0  0  0  0  0  0  0  0  0  0
    3.3347    1.5893    0.0000 C   0  0  0  0  0  0  0  0  0  0  0  0
   -3.2032   -1.3798    0.0000 C   0  0  0  0  0  0  0  0  0  0  0  0
    3.3347    0.5363    0.0000 C   0  0  0  0  0  0  0  0  0  0  0  0
    3.2908    3.8612    0.0000 O   0  0  0  0  0  0  0  0  0  0  0  0
   -4.3293   -3.0178    0.0000 O   0  0  0  0  0  0  0  0  0  0  0  0
   -0.2000   -0.5510    0.0000 C   0  0  0  0  0  0  0  0  0  0  0  0
   -1.6723   -0.5022    0.0000 C   0  0  0  0  0  0  0  0  0  0  0  0
    0.5412   -1.9795    0.0000 C   0  0  0  0  0  0  0  0  0  0  0  0
    4.3293    2.1158    0.0000 O   0  0  0  0  0  0  0  0  0  0  0  0
   -1.8136   -3.6956    0.0000 C   0  0  0  0  0  0  0  0  0  0  0  0
   -2.9935   -3.8612    0.0000 C   0  0  0  0  0  0  0  0  0  0  0  0
    1.4771    2.7010    0.0000 C   0  0  0  0  0  0  0  0  0  0  0  0
    3.4420   -0.6096    0.0000 C   0  0  0  0  0  0  0  0  0  0  0  0
    0.5997    1.1213    0.0000 H   0  0  0  0  0  0  0  0  0  0  0  0
  2  3  1  0  0  0  0
  3  1  1  0  0  0  0
  5  4  1  0  0  0  0
  5  7  1  0  0  0  0
  6  1  2  0  0  0  0
  7  6  1  0  0  0  0
  8  4  1  0  0  0  0
  9  1  1  0  0  0  0
 10  8  1  0  0  0  0
 11 12  1  0  0  0  0
 12  9  1  0  0  0  0
 13  9  1  0  0  0  0
 14  2  1  0  0  0  0
 11 15  1  1  0  0  0
 16  4  1  0  0  0  0
 17  3  1  0  0  0  0
 18 23  1  0  0  0  0
 19 14  1  0  0  0  0
 20  7  2  0  0  0  0
 21 13  1  0  0  0  0
 22 24  1  0  0  0  0
 23 16  1  0  0  0  0
 24 13  1  0  0  0  0
 25 15  2  0  0  0  0
 26 18  2  0  0  0  0
  2 27  1  1  0  0  0
  4 28  1  1  0  0  0
  3 29  1  6  0  0  0
 30 15  1  0  0  0  0
 10 31  1  6  0  0  0
 10 32  1  1  0  0  0
 11 33  1  6  0  0  0
 13 34  1  1  0  0  0
  9 35  1  1  0  0  0
 21 17  1  0  0  0  0
  5  2  1  0  0  0  0
 22 11  1  0  0  0  0
  8 19  1  0  0  0  0
 10 18  1  0  0  0  0
M  END
>  <IDNUMBER> (N026-0105)
N026-0105

>  <available> (N026-0105)
39

>  <H_acceptor> (N026-0105)
4

>  <H_donor> (N026-0105)
1

>  <B_rotN> (N026-0105)
2

>  <N_O> (N026-0105)
4

>  <logP> (N026-0105)
5.34

>  <logD> (N026-0105)
5.6

>  <logSw> (N026-0105)
-5.29

>  <PSA> (N026-0105)
71.44

>  <Chiral_centers> (N026-0105)
8

>  <Name> (N026-0105)
2,4a,6a,6b,9,9,12a-heptamethyl-10,13-dioxo-1,2,3,4,4a,5,6,6a,6b,7,8,8a,9,10,11,12,12a,12b,13,14b-icosahydropicene-2-carboxylic acid

>  <Smile> (N026-0105)
CC12C(C3=CC(C4C(C)(CCC5C4(C)CCC(C5(C)C)=O)C3(C)CC2)=O)CC(C)(C(=O)O)CC1

>  <Collection> (N026-0105)
DC

>  <InChI Key> (N026-0105)
QGWDYPREORDRIT-OHHDNCQJSA-N

>  <PERCENTSP3> (N026-0105)
83.3

$$$$

  -ISIS-  -- StrEd -- 

 18 20  0  0  0  0  0  0  0  0999 V2000
   -0.3826    0.2551    0.0000 C   0  0  0  0  0  0  0  0  0  0  0  0
    0.4717    0.7417    0.0000 C   0  0  0  0  0  0  0  0  0  0  0  0
   -2.1211    0.2551    0.0000 O   0  0  0  0  0  0  0  0  0  0  0  0
   -1.2371    0.7417    0.0000 C   0  0  0  0  0  0  0  0  0  0  0  0
    1.3498    0.2255    0.0000 O   0  0  0  0  0  0  0  0  0  0  0  0
   -2.1211   -0.7118    0.0000 C   0  0  0  0  0  0  0  0  0  0  0  0
   -0.4123   -0.7416    0.0000 C   0  0  0  0  0  0  0  0  0  0  0  0
    2.2042    0.7121    0.0000 C   0  0  0  0  0  0  0  0  0  0  0  0
   -1.2666   -1.2518    0.0000 C   0  0  0  0  0  0  0  0  0  0  0  0
    1.3498    2.2190    0.0000 C   0  0  0  0  0  0  0  0  0  0  0  0
    0.4954    1.7088    0.0000 C   0  0  0  0  0  0  0  0  0  0  0  0
    2.2338    1.7384    0.0000 C   0  0  0  0  0  0  0  0  0  0  0  0
   -1.2371    1.7384    0.0000 C   0  0  0  0  0  0  0  0  0  0  0  0
    3.0881    0.2018    0.0000 O   0  0  0  0  0  0  0  0  0  0  0  0
   -0.3826    2.2486    0.0000 C   0  0  0  0  0  0  0  0  0  0  0  0
   -1.2666   -2.2486    0.0000 O   0  0  0  0  0  0  0  0  0  0  0  0
   -3.0051   -1.1984    0.0000 C   0  0  0  0  0  0  0  0  0  0  0  0
   -3.0881   -0.4271    0.0000 C   0  0  0  0  0  0  0  0  0  0  0  0
  2  1  1  0  0  0  0
  3  4  1  0  0  0  0
  4  1  2  0  0  0  0
  5  2  1  0  0  0  0
  6  9  1  0  0  0  0
  7  1  1  0  0  0  0
  8  5  1  0  0  0  0
  9  7  1  0  0  0  0
 10 11  1  0  0  0  0
 11  2  2  0  0  0  0
 12 10  2  0  0  0  0
 13  4  1  0  0  0  0
 14  8  2  0  0  0  0
 15 13  2  0  0  0  0
  9 16  1  0  0  0  0
  6 17  1  0  0  0  0
 18  6  1  0  0  0  0
  3  6  1  0  0  0  0
 11 15  1  0  0  0  0
 12  8  1  0  0  0  0
M  END
>  <IDNUMBER> (0080-0056)
0080-0056

>  <available> (0080-0056)
579

>  <H_acceptor> (0080-0056)
4

>  <H_donor> (0080-0056)
1

>  <B_rotN> (0080-0056)
1

>  <N_O> (0080-0056)
4

>  <logP> (0080-0056)
2.3

>  <logD> (0080-0056)
1.97

>  <logSw> (0080-0056)
-3.15

>  <PSA> (0080-0056)
55.76

>  <Chiral_centers> (0080-0056)
1

>  <Name> (0080-0056)
9-hydroxy-8,8-dimethyl-2H,8H,9H,10H-pyrano[2,3-h]chromen-2-one

>  <Smile> (0080-0056)
CC1(Oc2c(CC1O)c1OC(C=Cc1cc2)=O)C

>  <Collection> (0080-0056)
DC

>  <InChI Key> (0080-0056)
UJSHBYQGQRPVNO-UHFFFAOYSA-N

>  <PERCENTSP3> (0080-0056)
35.7

$$$$

  -ISIS-  -- StrEd -- 

 34 36  0  0  0  0  0  0  0  0999 V2000
    2.4730    0.8657    0.0000 C   0  0  0  0  0  0  0  0  0  0  0  0
    1.7482    1.5031    0.0000 C   0  0  0  0  0  0  0  0  0  0  0  0
    3.4392    1.1676    0.0000 C   0  0  0  0  0  0  0  0  0  0  0  0
   -3.3721    2.5700    0.0000 O   0  0  0  0  0  0  0  0  0  0  0  0
   -2.6205    1.9259    0.0000 C   0  0  0  0  0  0  0  0  0  0  0  0
   -4.3385    2.2816    0.0000 C   0  0  0  0  0  0  0  0  0  0  0  0
    1.9224    2.5232    0.0000 C   0  0  0  0  0  0  0  0  0  0  0  0
    2.9090    2.8252    0.0000 C   0  0  0  0  0  0  0  0  0  0  0  0
    1.5199    0.5704    0.0000 C   0  0  0  0  0  0  0  0  0  0  0  0
   -3.8285    0.5904    0.0000 C   0  0  0  0  0  0  0  0  0  0  0  0
    3.6472    2.1475    0.0000 C   0  0  0  0  0  0  0  0  0  0  0  0
    4.1303    0.5570    0.0000 C   0  0  0  0  0  0  0  0  0  0  0  0
   -4.5801    1.2685    0.0000 C   0  0  0  0  0  0  0  0  0  0  0  0
   -2.7951    0.9126    0.0000 C   0  0  0  0  0  0  0  0  0  0  0  0
   -1.6541    2.2279    0.0000 C   0  0  0  0  0  0  0  0  0  0  0  0
    0.7819    1.1810    0.0000 C   0  0  0  0  0  0  0  0  0  0  0  0
    2.0233   -1.0402    0.0000 C   0  0  0  0  0  0  0  0  0  0  0  0
   -5.0968    2.9728    0.0000 O   0  0  0  0  0  0  0  0  0  0  0  0
    3.0031   -0.7315    0.0000 O   0  0  0  0  0  0  0  0  0  0  0  0
    0.0100    1.8455    0.0000 O   0  0  0  0  0  0  0  0  0  0  0  0
    1.7482   -1.9595    0.0000 O   0  0  0  0  0  0  0  0  0  0  0  0
    5.0968    0.8924    0.0000 C   0  0  0  0  0  0  0  0  0  0  0  0
   -0.9091    1.5567    0.0000 C   0  0  0  0  0  0  0  0  0  0  0  0
   -2.0838    0.2145    0.0000 C   0  0  0  0  0  0  0  0  0  0  0  0
    1.2783   -0.3759    0.0000 C   0  0  0  0  0  0  0  0  0  0  0  0
    3.3586   -2.4695    0.0000 C   0  0  0  0  0  0  0  0  0  0  0  0
    3.1508    0.2145    0.0000 C   0  0  0  0  0  0  0  0  0  0  0  0
    2.4058   -2.6842    0.0000 C   0  0  0  0  0  0  0  0  0  0  0  0
   -1.1175    0.5570    0.0000 C   0  0  0  0  0  0  0  0  0  0  0  0
    3.6472   -1.5367    0.0000 O   0  0  0  0  0  0  0  0  0  0  0  0
    1.1979    3.1809    0.0000 C   0  0  0  0  0  0  0  0  0  0  0  0
    4.9692   -2.9728    0.0000 O   0  0  0  0  0  0  0  0  0  0  0  0
    3.9357   -0.4296    0.0000 C   0  0  0  0  0  0  0  0  0  0  0  0
    4.0164   -3.1809    0.0000 C   0  0  0  0  0  0  0  0  0  0  0  0
  2  1  1  0  0  0  0
  3  1  1  0  0  0  0
  4  5  1  0  0  0  0
  5 15  1  0  0  0  0
  6  4  1  0  0  0  0
  7  2  1  0  0  0  0
  8 11  1  0  0  0  0
  9  1  1  0  0  0  0
 10 14  1  0  0  0  0
 11  3  1  0  0  0  0
 12  3  1  0  0  0  0
 13 10  2  0  0  0  0
 14 24  1  0  0  0  0
 15 23  2  0  0  0  0
 16  2  1  0  0  0  0
 17 25  1  0  0  0  0
 18  6  2  0  0  0  0
 19 17  2  0  0  0  0
 20 16  1  0  0  0  0
 21 17  1  0  0  0  0
 22 12  2  0  0  0  0
 23 20  1  0  0  0  0
 24 29  2  0  0  0  0
 25  9  1  0  0  0  0
 26 28  1  0  0  0  0
 27  1  1  0  0  0  0
 28 21  1  0  0  0  0
 29 23  1  0  0  0  0
 30 26  1  0  0  0  0
 31  7  1  0  0  0  0
 32 34  1  0  0  0  0
 33 12  1  0  0  0  0
 34 26  1  0  0  0  0
  7  8  2  0  0  0  0
 14  5  2  0  0  0  0
 13  6  1  0  0  0  0
M  END
>  <IDNUMBER> (N014-0004)
N014-0004

>  <available> (N014-0004)
4

>  <H_acceptor> (N014-0004)
7

>  <H_donor> (N014-0004)
2

>  <B_rotN> (N014-0004)
13

>  <N_O> (N014-0004)
7

>  <logP> (N014-0004)
4

>  <logD> (N014-0004)
5.73

>  <logSw> (N014-0004)
-2.92

>  <PSA> (N014-0004)
102.29

>  <Chiral_centers> (N014-0004)
4

>  <Name> (N014-0004)
2,3-dihydroxypropyl 3-(1,3-dimethyl-2-{[(2-oxo-2H-chromen-7-yl)oxy]methyl}-6-(prop-1-en-2-yl)cyclohex-3-en-1-yl)propanoate

>  <Smile> (N014-0004)
C(C(COC(CCC1(C)C(CC=C(C1COc1cc2OC(C=Cc2cc1)=O)C)C(=C)C)=O)O)O

>  <Collection> (N014-0004)
DC

>  <CLNUMBER> (N014-0004)
CV0119

>  <InChI Key> (N014-0004)
VUXHHWJZHCZHET-UHFFFAOYSA-N

>  <PERCENTSP3> (N014-0004)
48.1

$$$$

  -ISIS-  -- StrEd -- 

 30 33  0  0  0  0  0  0  0  0999 V2000
    0.7681   -0.2928    0.0000 C   0  0  1  0  0  0  0  0  0  0  0  0
   -0.2222   -0.2928    0.0000 C   0  0  1  0  0  0  0  0  0  0  0  0
    1.0982    0.6404    0.0000 C   0  0  2  0  0  0  0  0  0  0  0  0
   -0.5304   -1.2435    0.0000 C   0  0  2  0  0  0  0  0  0  0  0  0
    0.2532   -1.8332    0.0000 O   0  0  0  0  0  0  0  0  0  0  0  0
    0.2619    1.2215    0.0000 O   0  0  0  0  0  0  0  0  0  0  0  0
   -1.4284   -1.6529    0.0000 C   0  0  0  0  0  0  0  0  0  0  0  0
    2.0270    1.0189    0.0000 C   0  0  0  0  0  0  0  0  0  0  0  0
   -0.5085    0.6493    0.0000 C   0  0  0  0  0  0  0  0  0  0  0  0
    1.0849   -1.2435    0.0000 C   0  0  0  0  0  0  0  0  0  0  0  0
   -2.2603   -1.0497    0.0000 C   0  0  0  0  0  0  0  0  0  0  0  0
    2.8105    0.3852    0.0000 C   0  0  0  0  0  0  0  0  0  0  0  0
   -3.1714   -1.4634    0.0000 C   0  0  0  0  0  0  0  0  0  0  0  0
    3.7393    0.7460    0.0000 C   0  0  0  0  0  0  0  0  0  0  0  0
   -3.2771   -2.4583    0.0000 C   0  0  0  0  0  0  0  0  0  0  0  0
    3.8976    1.7057    0.0000 C   0  0  0  0  0  0  0  0  0  0  0  0
   -1.5429   -2.6477    0.0000 C   0  0  0  0  0  0  0  0  0  0  0  0
    2.1766    1.9785    0.0000 C   0  0  0  0  0  0  0  0  0  0  0  0
   -2.4847   -3.0482    0.0000 C   0  0  0  0  0  0  0  0  0  0  0  0
    3.1140    2.3397    0.0000 C   0  0  0  0  0  0  0  0  0  0  0  0
   -4.0034   -0.8737    0.0000 O   0  0  0  0  0  0  0  0  0  0  0  0
    4.5316    0.1211    0.0000 O   0  0  0  0  0  0  0  0  0  0  0  0
   -4.1971   -2.8677    0.0000 O   0  0  0  0  0  0  0  0  0  0  0  0
    4.8353    2.0666    0.0000 O   0  0  0  0  0  0  0  0  0  0  0  0
    4.3820   -0.8737    0.0000 C   0  0  0  0  0  0  0  0  0  0  0  0
   -4.9233   -1.2963    0.0000 C   0  0  0  0  0  0  0  0  0  0  0  0
    5.0070    3.0482    0.0000 C   0  0  0  0  0  0  0  0  0  0  0  0
   -5.0070   -2.2647    0.0000 C   0  0  0  0  0  0  0  0  0  0  0  0
   -1.2039   -0.3015    0.0000 H   0  0  0  0  0  0  0  0  0  0  0  0
    1.7850   -0.2928    0.0000 H   0  0  0  0  0  0  0  0  0  0  0  0
  2  1  1  0  0  0  0
  3  1  1  0  0  0  0
  4  2  1  0  0  0  0
  5 10  1  0  0  0  0
  6  3  1  0  0  0  0
  4  7  1  6  0  0  0
  3  8  1  6  0  0  0
  9  2  1  0  0  0  0
 10  1  1  0  0  0  0
 11  7  2  0  0  0  0
 12  8  2  0  0  0  0
 13 11  1  0  0  0  0
 14 12  1  0  0  0  0
 15 19  1  0  0  0  0
 16 20  1  0  0  0  0
 17  7  1  0  0  0  0
 18  8  1  0  0  0  0
 19 17  2  0  0  0  0
 20 18  2  0  0  0  0
 21 13  1  0  0  0  0
 22 14  1  0  0  0  0
 23 15  1  0  0  0  0
 24 16  1  0  0  0  0
 25 22  1  0  0  0  0
 26 21  1  0  0  0  0
 27 24  1  0  0  0  0
 28 23  1  0  0  0  0
  2 29  1  6  0  0  0
  1 30  1  6  0  0  0
  5  4  1  0  0  0  0
  9  6  1  0  0  0  0
 14 16  2  0  0  0  0
 13 15  2  0  0  0  0
M  END
>  <IDNUMBER> (N039-0012)
N039-0012

>  <available> (N039-0012)
43

>  <H_acceptor> (N039-0012)
6

>  <H_donor> (N039-0012)
0

>  <B_rotN> (N039-0012)
6

>  <N_O> (N039-0012)
6

>  <logP> (N039-0012)
2.64

>  <logD> (N039-0012)
2

>  <logSw> (N039-0012)
-4.73

>  <PSA> (N039-0012)
55.38

>  <Chiral_centers> (N039-0012)
4

>  <Name> (N039-0012)
1,4-bis(3,4-dimethoxyphenyl)-hexahydrofuro[3,4-c]furan

>  <Smile> (N039-0012)
COc1c(cc(C2C3C(CO2)C(c2cc(c(cc2)OC)OC)OC3)cc1)OC

>  <Collection> (N039-0012)
NC

>  <InChI Key> (N039-0012)
PEUUVVGQIVMSAW-RZTYQLBFSA-N

>  <PERCENTSP3> (N039-0012)
45.5

$$$$

  -ISIS-  -- StrEd -- 

 32 34  0  0  0  0  0  0  0  0999 V2000
    0.3027    0.3965    0.0000 C   0  0  0  0  0  0  0  0  0  0  0  0
    1.3355    0.3965    0.0000 C   0  0  0  0  0  0  0  0  0  0  0  0
   -0.2840    1.2274    0.0000 C   0  0  0  0  0  0  0  0  0  0  0  0
   -1.2603    0.9459    0.0000 C   0  0  0  0  0  0  0  0  0  0  0  0
    1.9692   -0.3920    0.0000 C   0  0  0  0  0  0  0  0  0  0  0  0
   -1.9879    1.6548    0.0000 C   0  0  0  0  0  0  0  0  0  0  0  0
   -0.3262   -0.3920    0.0000 C   0  0  0  0  0  0  0  0  0  0  0  0
   -0.0445    2.1992    0.0000 C   0  0  0  0  0  0  0  0  0  0  0  0
    0.7863   -1.7815    0.0000 C   0  0  0  0  0  0  0  0  0  0  0  0
    1.7252   -1.3637    0.0000 C   0  0  0  0  0  0  0  0  0  0  0  0
   -0.1009   -1.3778    0.0000 C   0  0  0  0  0  0  0  0  0  0  0  0
   -1.7485    2.6075    0.0000 C   0  0  0  0  0  0  0  0  0  0  0  0
   -0.7909    2.8892    0.0000 C   0  0  0  0  0  0  0  0  0  0  0  0
    0.7675   -2.7861    0.0000 N   0  0  0  0  0  0  0  0  0  0  0  0
    1.9926    1.2274    0.0000 C   0  0  2  0  0  0  0  0  0  0  0  0
    0.8286    2.6358    0.0000 C   0  0  0  0  0  0  0  0  0  0  0  0
    2.5138   -1.9833    0.0000 O   0  0  0  0  0  0  0  0  0  0  0  0
    1.7440    2.2039    0.0000 C   0  0  0  0  0  0  0  0  0  0  0  0
   -1.5091   -0.0259    0.0000 O   0  0  0  0  0  0  0  0  0  0  0  0
   -2.9455    1.3965    0.0000 O   0  0  0  0  0  0  0  0  0  0  0  0
    2.6592    0.4155    0.0000 N   0  0  0  0  0  0  0  0  0  0  0  0
   -2.4574    3.2741    0.0000 O   0  0  0  0  0  0  0  0  0  0  0  0
    1.6173   -3.2789    0.0000 C   0  0  0  0  0  0  0  0  0  0  0  0
    3.0066   -0.4483    0.0000 C   0  0  0  0  0  0  0  0  0  0  0  0
   -2.4574   -0.2794    0.0000 C   0  0  0  0  0  0  0  0  0  0  0  0
   -3.6403    2.1053    0.0000 C   0  0  0  0  0  0  0  0  0  0  0  0
   -2.2320    4.2552    0.0000 C   0  0  0  0  0  0  0  0  0  0  0  0
    2.4763   -2.7954    0.0000 C   0  0  0  0  0  0  0  0  0  0  0  0
    1.6173   -4.2552    0.0000 C   0  0  0  0  0  0  0  0  0  0  0  0
    3.3352   -3.2931    0.0000 C   0  0  0  0  0  0  0  0  0  0  0  0
    2.8001    1.7485    0.0000 H   0  0  0  0  0  0  0  0  0  0  0  0
    3.6403    0.5703    0.0000 H   0  0  0  0  0  0  0  0  0  0  0  0
  2  1  1  0  0  0  0
  3  1  1  0  0  0  0
  4  3  1  0  0  0  0
  5  2  2  0  0  0  0
  6  4  2  0  0  0  0
  7  1  2  0  0  0  0
  8  3  2  0  0  0  0
  9 11  2  0  0  0  0
 10  5  1  0  0  0  0
 11  7  1  0  0  0  0
 12 13  2  0  0  0  0
 13  8  1  0  0  0  0
 14  9  1  0  0  0  0
 15  2  1  0  0  0  0
 16  8  1  0  0  0  0
 17 10  2  0  0  0  0
 18 15  1  0  0  0  0
 19  4  1  0  0  0  0
 20  6  1  0  0  0  0
 15 21  1  6  0  0  0
 22 12  1  0  0  0  0
 23 14  1  0  0  0  0
 24 21  1  0  0  0  0
 25 19  1  0  0  0  0
 26 20  1  0  0  0  0
 27 22  1  0  0  0  0
 28 23  1  0  0  0  0
 29 23  1  0  0  0  0
 30 28  1  0  0  0  0
 15 31  1  1  0  0  0
 32 21  1  0  0  0  0
 16 18  1  0  0  0  0
 10  9  1  0  0  0  0
  6 12  1  0  0  0  0
M  END
>  <IDNUMBER> (N051-0054)
N051-0054

>  <available> (N051-0054)
48

>  <H_acceptor> (N051-0054)
5

>  <H_donor> (N051-0054)
2

>  <B_rotN> (N051-0054)
7

>  <N_O> (N051-0054)
6

>  <logP> (N051-0054)
3.66

>  <logD> (N051-0054)
0.04

>  <logSw> (N051-0054)
-1.95

>  <PSA> (N051-0054)
68.82

>  <Chiral_centers> (N051-0054)
2

>  <Name> (N051-0054)
14-[(BUTAN-2-YL)AMINO]-3,4,5-TRIMETHOXY-10-(METHYLAMINO)TRICYCLO[9.5.0.0^(2,7)]HEXADECA-1(16),2,4,6,11,14-HEXAEN-13-ONE

>  <Smile> (N051-0054)
CCC(Nc1ccc2c3c(c(c(cc3CCC(c2cc1=O)NC)OC)OC)OC)C

>  <Collection> (N051-0054)
DC

>  <InChI Key> (N051-0054)
MVPOWILPNMXNGS-IBYPIGCZSA-N

>  <PERCENTSP3> (N051-0054)
45.8

$$$$

  -ISIS-  -- StrEd -- 

 33 35  0  0  0  0  0  0  0  0999 V2000
   -0.0563    1.2562    0.0000 C   0  0  0  0  0  0  0  0  0  0  0  0
    0.9561    1.2646    0.0000 C   0  0  0  0  0  0  0  0  0  0  0  0
   -0.9396    1.7605    0.0000 C   0  0  0  0  0  0  0  0  0  0  0  0
   -1.8188    1.2562    0.0000 C   0  0  0  0  0  0  0  0  0  0  0  0
    1.5604    0.6271    0.0000 C   0  0  0  0  0  0  0  0  0  0  0  0
   -2.6936    1.7687    0.0000 C   0  0  0  0  0  0  0  0  0  0  0  0
   -0.6480    0.6562    0.0000 C   0  0  0  0  0  0  0  0  0  0  0  0
    0.4270   -0.7894    0.0000 C   0  0  0  0  0  0  0  0  0  0  0  0
   -0.9437    2.7854    0.0000 C   0  0  0  0  0  0  0  0  0  0  0  0
    1.3770   -0.3479    0.0000 C   0  0  0  0  0  0  0  0  0  0  0  0
    1.8312    1.7605    0.0000 C   0  0  1  0  0  0  0  0  0  0  0  0
   -0.4896   -0.3188    0.0000 C   0  0  0  0  0  0  0  0  0  0  0  0
   -2.6936    2.7811    0.0000 C   0  0  0  0  0  0  0  0  0  0  0  0
    2.6977    1.2521    0.0000 N   0  0  0  0  0  0  0  0  0  0  0  0
   -1.8229    3.2896    0.0000 C   0  0  0  0  0  0  0  0  0  0  0  0
    0.4104   -1.8021    0.0000 N   0  0  0  0  0  0  0  0  0  0  0  0
    3.5769    1.7562    0.0000 C   0  0  0  0  0  0  0  0  0  0  0  0
    2.1728   -0.9688    0.0000 O   0  0  0  0  0  0  0  0  0  0  0  0
    3.5813    2.7729    0.0000 O   0  0  0  0  0  0  0  0  0  0  0  0
   -1.8188    0.2437    0.0000 O   0  0  0  0  0  0  0  0  0  0  0  0
   -3.5689    1.2562    0.0000 O   0  0  0  0  0  0  0  0  0  0  0  0
   -3.5771    3.2896    0.0000 O   0  0  0  0  0  0  0  0  0  0  0  0
   -0.0604    3.3062    0.0000 C   0  0  0  0  0  0  0  0  0  0  0  0
   -0.4772   -2.2938    0.0000 C   0  0  0  0  0  0  0  0  0  0  0  0
    1.8312    2.7770    0.0000 C   0  0  1  0  0  0  0  0  0  0  0  0
    0.9561    3.2896    0.0000 C   0  0  0  0  0  0  0  0  0  0  0  0
    4.4562    1.2479    0.0000 C   0  0  0  0  0  0  0  0  0  0  0  0
   -2.4854   -0.2562    0.0000 C   0  0  0  0  0  0  0  0  0  0  0  0
   -3.5729    0.2437    0.0000 C   0  0  0  0  0  0  0  0  0  0  0  0
   -4.4562    2.7854    0.0000 C   0  0  0  0  0  0  0  0  0  0  0  0
   -0.4980   -3.3062    0.0000 C   0  0  0  0  0  0  0  0  0  0  0  0
   -1.3480   -1.7688    0.0000 C   0  0  0  0  0  0  0  0  0  0  0  0
    2.7020    3.2771    0.0000 H   0  0  0  0  0  0  0  0  0  0  0  0
  2  1  1  0  0  0  0
  3  1  1  0  0  0  0
  4  3  2  0  0  0  0
  5  2  2  0  0  0  0
  6  4  1  0  0  0  0
  7  1  2  0  0  0  0
  8 12  2  0  0  0  0
  9  3  1  0  0  0  0
 10  5  1  0  0  0  0
 11  2  1  0  0  0  0
 12  7  1  0  0  0  0
 13 15  1  0  0  0  0
 11 14  1  6  0  0  0
 15  9  2  0  0  0  0
 16  8  1  0  0  0  0
 17 14  1  0  0  0  0
 18 10  2  0  0  0  0
 19 17  2  0  0  0  0
 20  4  1  0  0  0  0
 21  6  1  0  0  0  0
 22 13  1  0  0  0  0
 23  9  1  0  0  0  0
 24 16  1  0  0  0  0
 25 11  1  0  0  0  0
 26 23  1  0  0  0  0
 27 17  1  0  0  0  0
 28 20  1  0  0  0  0
 29 21  1  0  0  0  0
 30 22  1  0  0  0  0
 31 24  1  0  0  0  0
 32 24  1  0  0  0  0
 25 33  1  1  0  0  0
 10  8  1  0  0  0  0
 26 25  1  0  0  0  0
  6 13  2  0  0  0  0
M  END
>  <IDNUMBER> (N051-0063)
N051-0063

>  <available> (N051-0063)
18

>  <Saltdata> (N051-0063)
2 HCl

>  <H_acceptor> (N051-0063)
7

>  <H_donor> (N051-0063)
2

>  <B_rotN> (N051-0063)
4

>  <N_O> (N051-0063)
7

>  <logP> (N051-0063)
2.26

>  <logD> (N051-0063)
2.26

>  <logSw> (N051-0063)
-4.11

>  <PSA> (N051-0063)
85.89

>  <Chiral_centers> (N051-0063)
1

>  <Name> (N051-0063)
N-[(8S)-11-(isopropylamino)-1,2,3-trimethoxy-10-oxo-6,7,8,10-tetrahydro-5H-benzo[a]cyclohepta[c][8]annulen-8-yl]acetamide

>  <Smile> (N051-0063)
C=1/2\C(=C/C(\C(=C/C1)\NC(C)C)=O)\[C@@H](NC(=O)C)[C@@H](CCc1c2c(c(c(c1)OC)OC)OC)[H]

>  <Collection> (N051-0063)
DC

>  <InChI Key> (N051-0063)
BMTFSJNNGATRKG-IBGZPJMESA-N

>  <PERCENTSP3> (N051-0063)
44

$$$$

  -ISIS-  -- StrEd -- 

 23 26  0  0  0  0  0  0  0  0999 V2000
   -2.1636   -0.7453    0.0000 N   0  0  0  0  0  0  0  0  0  0  0  0
   -2.1587    0.2609    0.0000 C   0  0  0  0  0  0  0  0  0  0  0  0
   -1.2931    0.7710    0.0000 C   0  0  0  0  0  0  0  0  0  0  0  0
    0.4340    0.7570    0.0000 N   0  0  0  0  0  0  0  0  0  0  0  0
   -3.0269   -1.2414    0.0000 C   0  0  0  0  0  0  0  0  0  0  0  0
    2.1609    0.7500    0.0000 C   0  0  0  0  0  0  0  0  0  0  0  0
   -0.4226   -0.7453    0.0000 C   0  0  0  0  0  0  0  0  0  0  0  0
   -1.2952   -1.2438    0.0000 C   0  0  0  0  0  0  0  0  0  0  0  0
   -0.4295    1.2765    0.0000 C   0  0  0  0  0  0  0  0  0  0  0  0
    1.3045    1.2555    0.0000 C   0  0  0  0  0  0  0  0  0  0  0  0
   -0.4226    0.2609    0.0000 C   0  0  0  0  0  0  0  0  0  0  0  0
   -3.0269    0.7593    0.0000 C   0  0  0  0  0  0  0  0  0  0  0  0
    3.0221    1.2438    0.0000 C   0  0  0  0  0  0  0  0  0  0  0  0
    0.4340   -0.2445    0.0000 C   0  0  0  0  0  0  0  0  0  0  0  0
   -3.8856    0.2609    0.0000 C   0  0  0  0  0  0  0  0  0  0  0  0
   -3.8856   -0.7430    0.0000 C   0  0  0  0  0  0  0  0  0  0  0  0
    2.1540   -0.2469    0.0000 C   0  0  0  0  0  0  0  0  0  0  0  0
   -3.0269   -2.2405    0.0000 O   0  0  0  0  0  0  0  0  0  0  0  0
    3.8856    0.7430    0.0000 C   0  0  0  0  0  0  0  0  0  0  0  0
    3.0104   -0.7523    0.0000 C   0  0  0  0  0  0  0  0  0  0  0  0
    3.8856   -0.2586    0.0000 C   0  0  0  0  0  0  0  0  0  0  0  0
    3.0081   -1.7491    0.0000 Br  0  0  0  0  0  0  0  0  0  0  0  0
    3.0221    2.2405    0.0000 O   0  0  0  0  0  0  0  0  0  0  0  0
  2  1  1  0  0  0  0
  3  2  1  0  0  0  0
  4 14  1  0  0  0  0
  5  1  1  0  0  0  0
  6 10  1  0  0  0  0
  7  8  1  0  0  0  0
  8  1  1  0  0  0  0
  9  3  1  0  0  0  0
 10  4  1  0  0  0  0
 11  7  1  0  0  0  0
 12  2  2  0  0  0  0
 13  6  1  0  0  0  0
 14  7  1  0  0  0  0
 15 16  2  0  0  0  0
 16  5  1  0  0  0  0
 17  6  2  0  0  0  0
 18  5  2  0  0  0  0
 19 13  2  0  0  0  0
 20 17  1  0  0  0  0
 21 20  2  0  0  0  0
 22 20  1  0  0  0  0
 23 13  1  0  0  0  0
 11  3  1  0  0  0  0
 15 12  1  0  0  0  0
  4  9  1  0  0  0  0
 21 19  1  0  0  0  0
M  END
>  <IDNUMBER> (N098-0051)
N098-0051

>  <available> (N098-0051)
23

>  <H_acceptor> (N098-0051)
4

>  <H_donor> (N098-0051)
1

>  <B_rotN> (N098-0051)
3

>  <N_O> (N098-0051)
4

>  <logP> (N098-0051)
2.16

>  <logD> (N098-0051)
1.46

>  <logSw> (N098-0051)
-2.13

>  <PSA> (N098-0051)
43.78

>  <Chiral_centers> (N098-0051)
2

>  <Name> (N098-0051)
11-[(5-BROMO-2-HYDROXYPHENYL)METHYL]-7,11-DIAZATRICYCLO[7.3.1.0^(2,7)]TRIDECA-2,4-DIEN-6-ONE

>  <Smile> (N098-0051)
Oc1c(CN2CC3c4[nH0](CC(C3)C2)c(ccc4)=O)cc(cc1)Br

>  <Collection> (N098-0051)
NC

>  <InChI Key> (N098-0051)
WUPFQEDVNYNDOH-UHFFFAOYSA-N

>  <PERCENTSP3> (N098-0051)
38.9

$$$$

  -ISIS-  -- StrEd -- 

 29 32  0  0  0  0  0  0  0  0999 V2000
   -5.3342   -0.2515    0.0000 N   0  0  0  0  0  0  0  0  0  0  0  0
    1.6440    1.6640    0.0000 N   0  0  0  0  0  0  0  0  0  0  0  0
   -5.3289    0.7442    0.0000 C   0  0  0  0  0  0  0  0  0  0  0  0
    0.7237    1.2469    0.0000 C   0  0  0  0  0  0  0  0  0  0  0  0
   -4.4643    1.2416    0.0000 C   0  0  0  0  0  0  0  0  0  0  0  0
    2.3075    0.9152    0.0000 C   0  0  0  0  0  0  0  0  0  0  0  0
    1.8096    0.0503    0.0000 N   0  0  0  0  0  0  0  0  0  0  0  0
   -0.1407    1.7496    0.0000 N   0  0  0  0  0  0  0  0  0  0  0  0
   -2.7446    1.2469    0.0000 N   0  0  0  0  0  0  0  0  0  0  0  0
   -6.1938   -0.7493    0.0000 C   0  0  0  0  0  0  0  0  0  0  0  0
    0.8298    0.2563    0.0000 S   0  0  0  0  0  0  0  0  0  0  0  0
   -1.0107    1.2469    0.0000 C   0  0  0  0  0  0  0  0  0  0  0  0
   -3.6047   -0.2614    0.0000 C   0  0  0  0  0  0  0  0  0  0  0  0
   -4.4693   -0.7590    0.0000 C   0  0  0  0  0  0  0  0  0  0  0  0
   -3.6047    1.7547    0.0000 C   0  0  0  0  0  0  0  0  0  0  0  0
   -3.6047    0.7394    0.0000 C   0  0  0  0  0  0  0  0  0  0  0  0
   -6.1938    1.2469    0.0000 C   0  0  0  0  0  0  0  0  0  0  0  0
   -1.8751    1.7496    0.0000 C   0  0  0  0  0  0  0  0  0  0  0  0
   -7.0585    0.7442    0.0000 C   0  0  0  0  0  0  0  0  0  0  0  0
   -2.7446    0.2464    0.0000 C   0  0  0  0  0  0  0  0  0  0  0  0
   -7.0585   -0.2515    0.0000 C   0  0  0  0  0  0  0  0  0  0  0  0
   -6.1885   -1.7547    0.0000 O   0  0  0  0  0  0  0  0  0  0  0  0
   -1.0107    0.2464    0.0000 O   0  0  0  0  0  0  0  0  0  0  0  0
    3.3031    1.0206    0.0000 S   0  0  0  0  0  0  0  0  0  0  0  0
    3.8912    0.2113    0.0000 C   0  0  0  0  0  0  0  0  0  0  0  0
    4.8867    0.3119    0.0000 C   0  0  0  0  0  0  0  0  0  0  0  0
    6.4651   -0.3869    0.0000 C   0  0  0  0  0  0  0  0  0  0  0  0
    5.4749   -0.4923    0.0000 C   0  0  0  0  0  0  0  0  0  0  0  0
    7.0585   -1.2017    0.0000 C   0  0  0  0  0  0  0  0  0  0  0  0
  2  4  2  0  0  0  0
  3  1  1  0  0  0  0
  4  8  1  0  0  0  0
  5  3  1  0  0  0  0
  6  2  1  0  0  0  0
  7 11  1  0  0  0  0
  8 12  1  0  0  0  0
  9 15  1  0  0  0  0
 10  1  1  0  0  0  0
 11  4  1  0  0  0  0
 12 18  1  0  0  0  0
 13 14  1  0  0  0  0
 14  1  1  0  0  0  0
 15  5  1  0  0  0  0
 16  5  1  0  0  0  0
 17  3  2  0  0  0  0
 18  9  1  0  0  0  0
 19 17  1  0  0  0  0
 20 13  1  0  0  0  0
 21 10  1  0  0  0  0
 22 10  2  0  0  0  0
 23 12  2  0  0  0  0
 24  6  1  0  0  0  0
 25 24  1  0  0  0  0
 26 25  1  0  0  0  0
 27 28  1  0  0  0  0
 28 26  1  0  0  0  0
 29 27  1  0  0  0  0
 21 19  2  0  0  0  0
 16 13  1  0  0  0  0
 20  9  1  0  0  0  0
  6  7  2  0  0  0  0
M  END
>  <IDNUMBER> (N099-0001)
N099-0001

>  <available> (N099-0001)
76

>  <H_acceptor> (N099-0001)
7

>  <H_donor> (N099-0001)
1

>  <B_rotN> (N099-0001)
9

>  <N_O> (N099-0001)
7

>  <logP> (N099-0001)
2.82

>  <logD> (N099-0001)
1.62

>  <logSw> (N099-0001)
1.7

>  <PSA> (N099-0001)
131.97

>  <Chiral_centers> (N099-0001)
2

>  <Name> (N099-0001)
2-{6-OXO-7,11-DIAZATRICYCLO[7.3.1.0^(2,7)]TRIDECA-2,4-DIEN-11-YL}-N-[3-(PENTYLSULFANYL)-1,2,4-THIADIAZOL-5-YL]ACETAMIDE

>  <Smile> (N099-0001)
CCCCCSC1N=C(NC(CN2CC3C[nH0]4c(cccc4C(C2)C3)=O)=O)SN=1

>  <Collection> (N099-0001)
NC

>  <CLNUMBER> (N099-0001)
CL7743

>  <InChI Key> (N099-0001)
GKHWDZNLPHOQHB-UHFFFAOYSA-N

>  <PERCENTSP3> (N099-0001)
60

$$$$

  -ISIS-  -- StrEd -- 

 34 35  0  0  0  0  0  0  0  0999 V2000
   -1.6419    1.4106    0.0000 C   0  0  2  0  0  0  0  0  0  0  0  0
   -1.6419    0.3642    0.0000 C   0  0  0  0  0  0  0  0  0  0  0  0
    2.0521    2.1680    0.0000 C   0  0  1  0  0  0  0  0  0  0  0  0
   -1.0694    2.1043    0.0000 C   0  0  0  0  0  0  0  0  0  0  0  0
   -0.7804   -0.1041    0.0000 O   0  0  0  0  0  0  0  0  0  0  0  0
    0.3526    2.3931    0.0000 C   0  0  1  0  0  0  0  0  0  0  0  0
    2.6476    1.4511    0.0000 C   0  0  0  0  0  0  0  0  0  0  0  0
    1.5032   -0.9828    0.0000 C   0  0  0  0  0  0  0  0  0  0  0  0
    0.5259   -1.2949    0.0000 C   0  0  0  0  0  0  0  0  0  0  0  0
   -0.4278   -0.9828    0.0000 C   0  0  0  0  0  0  0  0  0  0  0  0
    2.6476    0.4972    0.0000 O   0  0  0  0  0  0  0  0  0  0  0  0
    0.9076    1.5492    0.0000 O   0  0  0  0  0  0  0  0  0  0  0  0
    2.0927   -1.8152    0.0000 C   0  0  0  0  0  0  0  0  0  0  0  0
    0.5259   -2.3182    0.0000 N   0  0  0  0  0  0  0  0  0  0  0  0
    0.9076    0.8093    0.0000 C   0  0  0  0  0  0  0  0  0  0  0  0
    1.7344   -0.1909    0.0000 C   0  0  0  0  0  0  0  0  0  0  0  0
   -2.4280   -0.1271    0.0000 O   0  0  0  0  0  0  0  0  0  0  0  0
   -1.0174   -1.8152    0.0000 C   0  0  0  0  0  0  0  0  0  0  0  0
   -2.6478    2.4281    0.0000 C   0  0  0  0  0  0  0  0  0  0  0  0
    3.6016    1.7342    0.0000 O   0  0  0  0  0  0  0  0  0  0  0  0
    0.5259   -0.2831    0.0000 O   0  0  0  0  0  0  0  0  0  0  0  0
   -2.7749    1.4339    0.0000 O   0  0  0  0  0  0  0  0  0  0  0  0
    1.5032   -2.6304    0.0000 C   0  0  0  0  0  0  0  0  0  0  0  0
    1.5609    0.4162    0.0000 O   0  0  0  0  0  0  0  0  0  0  0  0
   -0.4278   -2.6304    0.0000 C   0  0  0  0  0  0  0  0  0  0  0  0
    2.0521    3.0351    0.0000 C   0  0  0  0  0  0  0  0  0  0  0  0
   -1.0869    2.9947    0.0000 H   0  0  0  0  0  0  0  0  0  0  0  0
   -3.6016    2.3011    0.0000 O   0  0  0  0  0  0  0  0  0  0  0  0
    0.3526    3.2603    0.0000 C   0  0  0  0  0  0  0  0  0  0  0  0
    0.5259   -3.2953    0.0000 C   0  0  0  0  0  0  0  0  0  0  0  0
    0.3526    0.3990    0.0000 C   0  0  0  0  0  0  0  0  0  0  0  0
   -2.4743    3.2953    0.0000 C   0  0  0  0  0  0  0  0  0  0  0  0
   -0.5087    1.4568    0.0000 H   0  0  0  0  0  0  0  0  0  0  0  0
    0.3526    1.6940    0.0000 H   0  0  0  0  0  0  0  0  0  0  0  0
  2  1  1  0  0  0  0
  3  6  1  0  0  0  0
  4  1  1  0  0  0  0
  5  2  1  0  0  0  0
  6  4  1  0  0  0  0
  7  3  1  0  0  0  0
  8  9  1  0  0  0  0
 10  9  1  0  0  0  0
 10  5  1  0  0  0  0
 11  7  1  0  0  0  0
 12  3  1  0  0  0  0
 13  8  2  0  0  0  0
 14 25  1  0  0  0  0
 15 12  1  0  0  0  0
 16 11  1  0  0  0  0
 17  2  2  0  0  0  0
 18 10  1  0  0  0  0
 19  1  1  0  0  0  0
 20  7  2  0  0  0  0
 21  9  2  0  0  0  0
  1 22  1  6  0  0  0
 23 14  1  0  0  0  0
 24 15  2  0  0  0  0
 25 18  1  0  0  0  0
  3 26  1  6  0  0  0
 27  4  1  0  0  0  0
 28 19  1  0  0  0  0
  6 29  1  6  0  0  0
 30 14  1  0  0  0  0
 31 15  1  0  0  0  0
 32 19  1  0  0  0  0
 33  4  1  0  0  0  0
 34  6  1  0  0  0  0
  8 16  1  0  0  0  0
 13 23  1  0  0  0  0
M  END
>  <IDNUMBER> (N036-0106)
N036-0106

>  <available> (N036-0106)
749

>  <H_acceptor> (N036-0106)
2

>  <H_donor> (N036-0106)
1

>  <B_rotN> (N036-0106)
3

>  <N_O> (N036-0106)
4

>  <logP> (N036-0106)
3.89

>  <logD> (N036-0106)
2.24

>  <logSw> (N036-0106)
-1.76

>  <PSA> (N036-0106)
139.67

>  <Chiral_centers> (N036-0106)
5

>  <Name> (N036-0106)
(11Z)-4-hydroxy-4-(1-hydroxyethyl)-6,7,14-trimethyl-3,8,17-trioxo-2,9-dioxa-14-azabicyclo[9.5.1]heptadec-11-en-7-yl acetate

>  <Smile> (N036-0106)
CC(C1(CC(C(C(OCC2=CCN(C)CCC(OC1=O)C2=O)=O)(C)OC(=O)C)C)O)O

>  <Collection> (N036-0106)
DC

>  <InChI Key> (N036-0106)
MPJBVZKNLCGQHF-GYMSSJSISA-N

>  <PERCENTSP3> (N036-0106)
71.4

$$$$

  -ISIS-  -- StrEd -- 

 41 46  0  0  0  0  0  0  0  0999 V2000
    0.1686    0.5826    0.0000 C   0  0  0  0  0  0  0  0  0  0  0  0
    2.5546    1.9358    0.0000 C   0  0  0  0  0  0  0  0  0  0  0  0
    2.5546    1.0356    0.0000 C   0  0  0  0  0  0  0  0  0  0  0  0
    0.9639    1.0356    0.0000 C   0  0  0  0  0  0  0  0  0  0  0  0
    0.1686   -0.3176    0.0000 C   0  0  0  0  0  0  0  0  0  0  0  0
    1.7591    0.5826    0.0000 C   0  0  0  0  0  0  0  0  0  0  0  0
   -2.2397   -2.8527    0.0000 C   0  0  0  0  0  0  0  0  0  0  0  0
   -3.0239   -3.8470    0.0000 C   0  0  0  0  0  0  0  0  0  0  0  0
   -4.5208   -3.8470    0.0000 C   0  0  0  0  0  0  0  0  0  0  0  0
    3.4049    2.2287    0.0000 C   0  0  0  0  0  0  0  0  0  0  0  0
   -3.0239   -1.8312    0.0000 O   0  0  0  0  0  0  0  0  0  0  0  0
    3.6702    3.0737    0.0000 C   0  0  0  0  0  0  0  0  0  0  0  0
   -0.6270    1.0356    0.0000 C   0  0  0  0  0  0  0  0  0  0  0  0
    0.9639    1.9358    0.0000 C   0  0  1  0  0  0  0  0  0  0  0  0
    1.7370    2.3832    0.0000 C   0  0  0  0  0  0  0  0  0  0  0  0
   -5.2886   -2.8527    0.0000 C   0  0  0  0  0  0  0  0  0  0  0  0
    4.5208    3.3666    0.0000 C   0  0  0  0  0  0  0  0  0  0  0  0
   -4.5208   -1.8312    0.0000 C   0  0  0  0  0  0  0  0  0  0  0  0
   -0.6270   -0.7705    0.0000 C   0  0  0  0  0  0  0  0  0  0  0  0
    4.5428    4.2668    0.0000 C   0  0  0  0  0  0  0  0  0  0  0  0
    3.4049    0.7703    0.0000 C   0  0  0  0  0  0  0  0  0  0  0  0
   -2.2178   -0.7705    0.0000 O   0  0  0  0  0  0  0  0  0  0  0  0
   -1.4223   -0.3176    0.0000 C   0  0  0  0  0  0  0  0  0  0  0  0
   -1.4223    0.5826    0.0000 C   0  0  0  0  0  0  0  0  0  0  0  0
    1.7591   -0.3176    0.0000 C   0  0  0  0  0  0  0  0  0  0  0  0
    3.6702    4.5317    0.0000 O   0  0  0  0  0  0  0  0  0  0  0  0
    3.9352    1.5106    0.0000 C   0  0  0  0  0  0  0  0  0  0  0  0
    0.9639   -0.7705    0.0000 C   0  0  0  0  0  0  0  0  0  0  0  0
    3.1400    3.8192    0.0000 C   0  0  0  0  0  0  0  0  0  0  0  0
    5.2886    4.7970    0.0000 O   0  0  0  0  0  0  0  0  0  0  0  0
    2.5546    0.1297    0.0000 O   0  0  0  0  0  0  0  0  0  0  0  0
    0.1686   -1.2180    0.0000 O   0  0  0  0  0  0  0  0  0  0  0  0
    0.1686    1.5106    0.0000 C   0  0  0  0  0  0  0  0  0  0  0  0
   -3.0350   -4.7970    0.0000 O   0  0  0  0  0  0  0  0  0  0  0  0
   -4.4823   -4.6423    0.0000 O   0  0  0  0  0  0  0  0  0  0  0  0
   -5.2886   -1.6596    0.0000 O   0  0  0  0  0  0  0  0  0  0  0  0
    2.5323    2.8638    0.0000 C   0  0  0  0  0  0  0  0  0  0  0  0
   -1.2898    1.7205    0.0000 O   0  0  0  0  0  0  0  0  0  0  0  0
    1.0191    2.9411    0.0000 O   0  0  0  0  0  0  0  0  0  0  0  0
   -0.3730    2.0409    0.0000 O   0  0  0  0  0  0  0  0  0  0  0  0
   -4.4823   -2.9578    0.0000 C   0  0  0  0  0  0  0  0  0  0  0  0
  2 15  1  0  0  0  0
  6  3  1  0  0  0  0
  4  1  1  0  0  0  0
  5  1  1  0  0  0  0
  6  4  1  0  0  0  0
  7 22  1  0  0  0  0
  8  7  1  0  0  0  0
  9  8  1  0  0  0  0
 10  2  1  0  0  0  0
 11  7  1  0  0  0  0
 10 12  1  0  0  0  0
 13  1  1  0  0  0  0
 14  4  1  0  0  0  0
 15 14  1  0  0  0  0
 16 18  1  0  0  0  0
 17 12  2  0  0  0  0
 18 11  1  0  0  0  0
 19  5  1  0  0  0  0
 20 17  1  0  0  0  0
 21  3  1  0  0  0  0
 23 22  1  0  0  0  0
 23 24  1  0  0  0  0
 24 13  1  0  0  0  0
 25 28  1  0  0  0  0
 26 29  1  0  0  0  0
 27 21  1  0  0  0  0
 28  5  1  0  0  0  0
 29 12  1  0  0  0  0
 30 20  2  0  0  0  0
  3 31  1  0  0  0  0
  5 32  1  0  0  0  0
  1 33  1  0  0  0  0
  8 34  1  0  0  0  0
  9 35  1  0  0  0  0
 16 36  1  0  0  0  0
  2 37  1  0  0  0  0
 13 38  1  0  0  0  0
 14 39  1  6  0  0  0
 40 33  1  0  0  0  0
 18 41  1  0  0  0  0
 19 23  1  0  0  0  0
 25  6  1  0  0  0  0
  2  3  1  0  0  0  0
 10 27  1  0  0  0  0
 16  9  1  0  0  0  0
 20 26  1  0  0  0  0
M  END
>  <IDNUMBER> (N001-0004)
N001-0004

>  <available> (N001-0004)
929

>  <H_acceptor> (N001-0004)
12

>  <H_donor> (N001-0004)
8

>  <B_rotN> (N001-0004)
12

>  <N_O> (N001-0004)
12

>  <logP> (N001-0004)
-2.28

>  <logD> (N001-0004)
-1.73

>  <logSw> (N001-0004)
-3.39

>  <PSA> (N001-0004)
206.6

>  <Chiral_centers> (N001-0004)
15

>  <Name> (N001-0004)
4-[3a,5a,9,10-tetrahydroxy-9a-(hydroxymethyl)-11a-methyl-7-[(3,4,5-trihydroxy-6-methyloxan-2-yl)oxy]-hexadecahydro-1H-cyclopenta[a]phenanthren-1-yl]-2,5-dihydrofuran-2-one

>  <Smile> (N001-0004)
CC1OC(OC2CC3(C(CO)(C(C2)O)C2C(C4(C(C)(CC2O)C(CC4)C2=CC(OC2)=O)O)CC3)O)C(C(O)C1O)O

>  <Collection> (N001-0004)
DC

>  <InChI Key> (N001-0004)
LPMXVESGRSUGHW-YGMDXYNPSA-N

>  <PERCENTSP3> (N001-0004)
89.7

$$$$

  -ISIS-  -- StrEd -- 

 27 30  0  0  0  0  0  0  0  0999 V2000
    1.6354   -0.0105    0.0000 C   0  0  0  0  0  0  0  0  0  0  0  0
   -0.9524    1.4573    0.0000 C   0  0  0  0  0  0  0  0  0  0  0  0
   -0.0870    0.9567    0.0000 C   0  0  0  0  0  0  0  0  0  0  0  0
    0.7698   -0.5199    0.0000 C   0  0  0  0  0  0  0  0  0  0  0  0
    2.5010   -0.4984    0.0000 C   0  0  0  0  0  0  0  0  0  0  0  0
   -0.9524    2.4543    0.0000 C   0  0  0  0  0  0  0  0  0  0  0  0
   -1.8263    0.9481    0.0000 C   0  0  0  0  0  0  0  0  0  0  0  0
   -2.6834    1.4573    0.0000 C   0  0  0  0  0  0  0  0  0  0  0  0
   -2.6834    2.4543    0.0000 C   0  0  0  0  0  0  0  0  0  0  0  0
   -0.0870   -0.0276    0.0000 C   0  0  0  0  0  0  0  0  0  0  0  0
    0.7573    1.4573    0.0000 N   0  0  0  0  0  0  0  0  0  0  0  0
   -1.8263    2.9633    0.0000 C   0  0  0  0  0  0  0  0  0  0  0  0
    1.6354    0.9567    0.0000 C   0  0  0  0  0  0  0  0  0  0  0  0
   -3.6210    1.1518    0.0000 O   0  0  0  0  0  0  0  0  0  0  0  0
   -3.6380    2.7598    0.0000 O   0  0  0  0  0  0  0  0  0  0  0  0
    2.5010   -1.5082    0.0000 C   0  0  0  0  0  0  0  0  0  0  0  0
   -4.2190    1.9365    0.0000 C   0  0  0  0  0  0  0  0  0  0  0  0
   -1.0416    0.3881    0.0000 O   0  0  0  0  0  0  0  0  0  0  0  0
    0.7698   -1.5082    0.0000 C   0  0  0  0  0  0  0  0  0  0  0  0
   -0.0870    2.9548    0.0000 C   0  0  0  0  0  0  0  0  0  0  0  0
    1.6566   -2.0174    0.0000 C   0  0  0  0  0  0  0  0  0  0  0  0
    0.7573    2.4543    0.0000 C   0  0  0  0  0  0  0  0  0  0  0  0
    3.3536    0.0105    0.0000 O   0  0  0  0  0  0  0  0  0  0  0  0
    3.3875   -1.9749    0.0000 O   0  0  0  0  0  0  0  0  0  0  0  0
    1.6142    1.9537    0.0000 C   0  0  0  0  0  0  0  0  0  0  0  0
    4.2190   -0.4688    0.0000 C   0  0  0  0  0  0  0  0  0  0  0  0
    3.3875   -2.9633    0.0000 C   0  0  0  0  0  0  0  0  0  0  0  0
  2  3  1  0  0  0  0
  3 10  1  0  0  0  0
  4  1  2  0  0  0  0
  5  1  1  0  0  0  0
  6 20  1  0  0  0  0
  7  2  2  0  0  0  0
  8  7  1  0  0  0  0
  9 12  1  0  0  0  0
 10  4  1  0  0  0  0
 11 13  1  0  0  0  0
 12  6  2  0  0  0  0
 13  1  1  0  0  0  0
 14  8  1  0  0  0  0
 15  9  1  0  0  0  0
 16  5  2  0  0  0  0
 17 14  1  0  0  0  0
 18  3  2  0  0  0  0
 19  4  1  0  0  0  0
 20 22  1  0  0  0  0
 21 16  1  0  0  0  0
 22 11  1  0  0  0  0
 23  5  1  0  0  0  0
 24 16  1  0  0  0  0
 25 11  1  0  0  0  0
 26 23  1  0  0  0  0
 27 24  1  0  0  0  0
 19 21  2  0  0  0  0
  2  6  1  0  0  0  0
  9  8  2  0  0  0  0
 15 17  1  0  0  0  0
M  END
>  <IDNUMBER> (1521-0108)
1521-0108

>  <available> (1521-0108)
13

>  <Saltdata> (1521-0108)
HBr

>  <H_acceptor> (1521-0108)
5

>  <H_donor> (1521-0108)
0

>  <B_rotN> (1521-0108)
2

>  <N_O> (1521-0108)
6

>  <logP> (1521-0108)
2.86

>  <logD> (1521-0108)
0.51

>  <logSw> (1521-0108)
-1.39

>  <PSA> (1521-0108)
57.23

>  <Chiral_centers> (1521-0108)
0

>  <Name> (1521-0108)
3,4-dimethoxy-6-methyl-5,7,8,15-tetrahydrobenzo[c][1,3]benzodioxolo[5,6-g]azecin-14(6H)-one

>  <Smile> (1521-0108)
COc1c(c2CN(CCc3c(C(Cc2cc1)=O)cc1c(c3)OCO1)C)OC

>  <Collection> (1521-0108)
DC

>  <InChI Key> (1521-0108)
HYBRYAPKQCZIAE-UHFFFAOYSA-N

>  <PERCENTSP3> (1521-0108)
38.1

$$$$

  -ISIS-  -- StrEd -- 

 26 29  0  0  0  0  0  0  0  0999 V2000
    0.4474    0.4966    0.0000 N   0  0  0  0  0  0  0  0  0  0  0  0
    1.3097   -0.9987    0.0000 C   0  0  0  0  0  0  0  0  0  0  0  0
   -0.4202   -0.0000    0.0000 C   0  0  0  0  0  0  0  0  0  0  0  0
   -1.2826    0.4966    0.0000 C   0  0  0  0  0  0  0  0  0  0  0  0
    1.3097   -0.0000    0.0000 C   0  0  0  0  0  0  0  0  0  0  0  0
    0.4202   -1.4952    0.0000 C   0  0  0  0  0  0  0  0  0  0  0  0
   -0.4477   -0.9987    0.0000 C   0  0  0  0  0  0  0  0  0  0  0  0
    2.1502   -1.5226    0.0000 C   0  0  0  0  0  0  0  0  0  0  0  0
   -1.2826    1.4899    0.0000 C   0  0  0  0  0  0  0  0  0  0  0  0
   -2.1230   -0.0000    0.0000 C   0  0  0  0  0  0  0  0  0  0  0  0
   -2.9852    0.4966    0.0000 C   0  0  0  0  0  0  0  0  0  0  0  0
   -2.1230    1.9864    0.0000 C   0  0  0  0  0  0  0  0  0  0  0  0
   -2.9852    1.4899    0.0000 C   0  0  0  0  0  0  0  0  0  0  0  0
    0.4474    1.4899    0.0000 C   0  0  0  0  0  0  0  0  0  0  0  0
    2.1502   -2.4886    0.0000 C   0  0  0  0  0  0  0  0  0  0  0  0
   -0.4202    1.9864    0.0000 C   0  0  0  0  0  0  0  0  0  0  0  0
    0.3928   -2.5158    0.0000 C   0  0  0  0  0  0  0  0  0  0  0  0
    1.2553   -3.0125    0.0000 C   0  0  0  0  0  0  0  0  0  0  0  0
    3.0398   -1.0259    0.0000 O   0  0  0  0  0  0  0  0  0  0  0  0
   -3.8748   -0.0000    0.0000 O   0  0  0  0  0  0  0  0  0  0  0  0
   -3.8748    2.0138    0.0000 O   0  0  0  0  0  0  0  0  0  0  0  0
    3.0124   -2.9635    0.0000 O   0  0  0  0  0  0  0  0  0  0  0  0
    3.8748   -1.5717    0.0000 C   0  0  0  0  0  0  0  0  0  0  0  0
   -3.8748    3.0125    0.0000 C   0  0  0  0  0  0  0  0  0  0  0  0
   -3.8748   -1.0259    0.0000 C   0  0  0  0  0  0  0  0  0  0  0  0
    3.8529   -2.4396    0.0000 C   0  0  0  0  0  0  0  0  0  0  0  0
  2  5  1  0  0  0  0
  3  1  1  0  0  0  0
  4  3  1  0  0  0  0
  5  1  1  0  0  0  0
  6  2  2  0  0  0  0
  7  3  1  0  0  0  0
  8  2  1  0  0  0  0
  9 16  1  0  0  0  0
 10  4  1  0  0  0  0
 11 10  2  0  0  0  0
 12  9  1  0  0  0  0
 13 12  2  0  0  0  0
 14  1  1  0  0  0  0
 15  8  2  0  0  0  0
 16 14  1  0  0  0  0
 17  6  1  0  0  0  0
 18 15  1  0  0  0  0
 19  8  1  0  0  0  0
 20 11  1  0  0  0  0
 21 13  1  0  0  0  0
 22 15  1  0  0  0  0
 23 19  1  0  0  0  0
 24 21  1  0  0  0  0
 25 20  1  0  0  0  0
 26 22  1  0  0  0  0
  7  6  1  0  0  0  0
  4  9  2  0  0  0  0
 11 13  1  0  0  0  0
 17 18  2  0  0  0  0
M  END
>  <IDNUMBER> (0080-0012)
0080-0012

>  <available> (0080-0012)
119

>  <Saltdata> (0080-0012)
H2SO4

>  <H_acceptor> (0080-0012)
5

>  <H_donor> (0080-0012)
0

>  <B_rotN> (0080-0012)
4

>  <N_O> (0080-0012)
5

>  <logP> (0080-0012)
0.59

>  <logD> (0080-0012)
0.59

>  <logSw> (0080-0012)
-2.77

>  <PSA> (0080-0012)
40.16

>  <Chiral_centers> (0080-0012)
1

>  <Name> (0080-0012)
3,4,10,11-tetramethoxy-7,8,12b,13-tetrahydro-5H-6-azatetraphene

>  <Smile> (0080-0012)
N12C(c3c(cc(c(c3)OC)OC)CC1)Cc1c(C2)c(c(cc1)OC)OC

>  <Collection> (0080-0012)
NC

>  <InChI Key> (0080-0012)
AEQDJSLRWYMAQI-UHFFFAOYSA-N

>  <PERCENTSP3> (0080-0012)
42.857

$$$$

  -ISIS-  -- StrEd -- 

 30 32  0  0  0  0  0  0  0  0999 V2000
    0.3024   -0.0915    0.0000 C   0  0  0  0  0  0  0  0  0  0  0  0
    1.3341   -0.0915    0.0000 C   0  0  0  0  0  0  0  0  0  0  0  0
   -0.2837    0.7385    0.0000 C   0  0  0  0  0  0  0  0  0  0  0  0
   -1.2590    0.4572    0.0000 C   0  0  0  0  0  0  0  0  0  0  0  0
    1.9671   -0.8792    0.0000 C   0  0  0  0  0  0  0  0  0  0  0  0
   -1.9858    1.1652    0.0000 C   0  0  0  0  0  0  0  0  0  0  0  0
   -0.3258   -0.8792    0.0000 C   0  0  0  0  0  0  0  0  0  0  0  0
   -0.0446    1.7091    0.0000 C   0  0  0  0  0  0  0  0  0  0  0  0
    1.7231   -1.8498    0.0000 C   0  0  0  0  0  0  0  0  0  0  0  0
   -1.7466    2.1170    0.0000 C   0  0  0  0  0  0  0  0  0  0  0  0
    0.7854   -2.2671    0.0000 C   0  0  0  0  0  0  0  0  0  0  0  0
   -0.1008   -1.8639    0.0000 C   0  0  0  0  0  0  0  0  0  0  0  0
   -0.7900    2.3984    0.0000 C   0  0  0  0  0  0  0  0  0  0  0  0
    1.9905    0.7385    0.0000 C   0  0  2  0  0  0  0  0  0  0  0  0
    0.8276    2.1451    0.0000 C   0  0  0  0  0  0  0  0  0  0  0  0
    2.5109   -2.4688    0.0000 O   0  0  0  0  0  0  0  0  0  0  0  0
    1.7420    1.7138    0.0000 C   0  0  0  0  0  0  0  0  0  0  0  0
    0.7666   -3.2706    0.0000 N   0  0  0  0  0  0  0  0  0  0  0  0
   -1.5075   -0.5135    0.0000 O   0  0  0  0  0  0  0  0  0  0  0  0
   -2.9424    0.9072    0.0000 O   0  0  0  0  0  0  0  0  0  0  0  0
    2.6563   -0.0726    0.0000 N   0  0  0  0  0  0  0  0  0  0  0  0
   -2.4547    2.7829    0.0000 O   0  0  0  0  0  0  0  0  0  0  0  0
    1.6153   -3.7629    0.0000 C   0  0  0  0  0  0  0  0  0  0  0  0
    3.0031   -0.9356    0.0000 C   0  0  0  0  0  0  0  0  0  0  0  0
   -2.4547   -0.7667    0.0000 C   0  0  0  0  0  0  0  0  0  0  0  0
   -3.6363    1.6153    0.0000 C   0  0  0  0  0  0  0  0  0  0  0  0
   -2.2298    3.7629    0.0000 C   0  0  0  0  0  0  0  0  0  0  0  0
    3.6363    0.0820    0.0000 H   0  0  0  0  0  0  0  0  0  0  0  0
    2.7970    1.2589    0.0000 H   0  0  0  0  0  0  0  0  0  0  0  0
   -0.0914   -3.7629    0.0000 H   0  0  0  0  0  0  0  0  0  0  0  0
  2  1  1  0  0  0  0
  3  1  1  0  0  0  0
  4  3  1  0  0  0  0
  5  2  2  0  0  0  0
  6  4  2  0  0  0  0
  7  1  2  0  0  0  0
  8  3  2  0  0  0  0
  9  5  1  0  0  0  0
 10 13  2  0  0  0  0
 11 12  2  0  0  0  0
 12  7  1  0  0  0  0
 13  8  1  0  0  0  0
 14  2  1  0  0  0  0
 15  8  1  0  0  0  0
 16  9  2  0  0  0  0
 17 14  1  0  0  0  0
 18 11  1  0  0  0  0
 19  4  1  0  0  0  0
 20  6  1  0  0  0  0
 14 21  1  6  0  0  0
 22 10  1  0  0  0  0
 23 18  1  0  0  0  0
 24 21  1  0  0  0  0
 25 19  1  0  0  0  0
 26 20  1  0  0  0  0
 27 22  1  0  0  0  0
 28 21  1  0  0  0  0
 14 29  1  1  0  0  0
 30 18  1  0  0  0  0
 11  9  1  0  0  0  0
 17 15  1  0  0  0  0
 10  6  1  0  0  0  0
M  END
>  <IDNUMBER> (N051-0046)
N051-0046

>  <available> (N051-0046)
41

>  <H_acceptor> (N051-0046)
5

>  <H_donor> (N051-0046)
2

>  <B_rotN> (N051-0046)
5

>  <N_O> (N051-0046)
6

>  <logP> (N051-0046)
2.41

>  <logD> (N051-0046)
-0.56

>  <logSw> (N051-0046)
-1.78

>  <PSA> (N051-0046)
68.82

>  <Chiral_centers> (N051-0046)
1

>  <Name> (N051-0046)
3,4,5-TRIMETHOXY-10,14-BIS(METHYLAMINO)TRICYCLO[9.5.0.0^(2,7)]HEXADECA-1(16),2,4,6,11,14-HEXAEN-13-ONE

>  <Smile> (N051-0046)
COc1c(c(c2c3ccc(c(cc3C(CCc2c1)NC)=O)NC)OC)OC

>  <Collection> (N051-0046)
DC

>  <InChI Key> (N051-0046)
PSXLMBFKHLWVFL-HNNXBMFYSA-N

>  <PERCENTSP3> (N051-0046)
38.1

$$$$

  -ISIS-  -- StrEd -- 

 34 38  0  0  0  0  0  0  0  0999 V2000
    1.8393   -0.7631    0.0000 C   0  0  0  0  0  0  0  0  0  0  0  0
   -0.7132   -1.2683    0.0000 C   0  0  0  0  0  0  0  0  0  0  0  0
    1.8393    0.2105    0.0000 C   0  0  0  0  0  0  0  0  0  0  0  0
   -0.7132   -2.2419    0.0000 C   0  0  0  0  0  0  0  0  0  0  0  0
    0.1447   -0.7631    0.0000 C   0  0  2  0  0  0  0  0  0  0  0  0
    0.9814   -1.2683    0.0000 C   0  0  1  0  0  0  0  0  0  0  0  0
    3.1024    1.4842    0.0000 C   0  0  0  0  0  0  0  0  0  0  0  0
    2.7341    0.4738    0.0000 C   0  0  0  0  0  0  0  0  0  0  0  0
    2.4551    2.3052    0.0000 C   0  0  0  0  0  0  0  0  0  0  0  0
    3.1024    3.2262    0.0000 C   0  0  0  0  0  0  0  0  0  0  0  0
    2.7341   -1.0526    0.0000 C   0  0  0  0  0  0  0  0  0  0  0  0
    0.9814    0.6999    0.0000 C   0  0  0  0  0  0  0  0  0  0  0  0
   -1.5973   -2.7104    0.0000 C   0  0  0  0  0  0  0  0  0  0  0  0
   -1.5973   -0.7631    0.0000 C   0  0  0  0  0  0  0  0  0  0  0  0
    0.1447    0.2105    0.0000 C   0  0  0  0  0  0  0  0  0  0  0  0
    4.1129    2.8630    0.0000 O   0  0  0  0  0  0  0  0  0  0  0  0
    3.3024   -0.2840    0.0000 C   0  0  0  0  0  0  0  0  0  0  0  0
    0.9814   -2.2419    0.0000 C   0  0  0  0  0  0  0  0  0  0  0  0
    0.1447   -2.7104    0.0000 C   0  0  0  0  0  0  0  0  0  0  0  0
    4.1129    1.8263    0.0000 C   0  0  0  0  0  0  0  0  0  0  0  0
   -3.2656   -3.7471    0.0000 C   0  0  0  0  0  0  0  0  0  0  0  0
   -0.7132   -0.2840    0.0000 C   0  0  0  0  0  0  0  0  0  0  0  0
   -2.3815   -2.2419    0.0000 C   0  0  0  0  0  0  0  0  0  0  0  0
   -3.2656   -2.7577    0.0000 O   0  0  0  0  0  0  0  0  0  0  0  0
    2.7341    4.2525    0.0000 O   0  0  0  0  0  0  0  0  0  0  0  0
    1.8393   -1.8525    0.0000 O   0  0  0  0  0  0  0  0  0  0  0  0
   -4.1129   -4.2365    0.0000 O   0  0  0  0  0  0  0  0  0  0  0  0
   -0.7132   -3.5051    0.0000 O   0  0  0  0  0  0  0  0  0  0  0  0
   -1.5709    0.2105    0.0000 O   0  0  0  0  0  0  0  0  0  0  0  0
   -2.3815   -1.2683    0.0000 C   0  0  0  0  0  0  0  0  0  0  0  0
    1.8393    1.2052    0.0000 C   0  0  0  0  0  0  0  0  0  0  0  0
   -2.4078   -4.2525    0.0000 C   0  0  0  0  0  0  0  0  0  0  0  0
    0.1447   -1.7104    0.0000 H   0  0  0  0  0  0  0  0  0  0  0  0
    0.9814   -0.4104    0.0000 H   0  0  0  0  0  0  0  0  0  0  0  0
  2  5  1  0  0  0  0
  3  1  1  0  0  0  0
  4 19  1  0  0  0  0
  5  6  1  0  0  0  0
  6  1  1  0  0  0  0
  8  7  1  0  0  0  0
  8  3  1  0  0  0  0
  9  7  2  0  0  0  0
 10  9  1  0  0  0  0
 11  1  1  0  0  0  0
 12  3  1  0  0  0  0
 13  4  1  0  0  0  0
 14  2  1  0  0  0  0
 15  5  1  0  0  0  0
 16 20  1  0  0  0  0
 17 11  1  0  0  0  0
 18  6  1  0  0  0  0
 19 18  1  0  0  0  0
 20  7  1  0  0  0  0
 21 24  1  0  0  0  0
  2 22  1  0  0  0  0
 23 13  1  0  0  0  0
 23 24  1  0  0  0  0
 25 10  2  0  0  0  0
  1 26  1  0  0  0  0
 27 21  2  0  0  0  0
  4 28  1  0  0  0  0
 29 22  2  0  0  0  0
 30 14  1  0  0  0  0
  3 31  1  0  0  0  0
 32 21  1  0  0  0  0
  5 33  1  6  0  0  0
  6 34  1  1  0  0  0
  8 17  1  0  0  0  0
 12 15  1  0  0  0  0
  4  2  1  0  0  0  0
 23 30  1  0  0  0  0
 16 10  1  0  0  0  0
M  END
>  <IDNUMBER> (0449-0112)
0449-0112

>  <available> (0449-0112)
2372

>  <H_acceptor> (0449-0112)
7

>  <H_donor> (0449-0112)
2

>  <B_rotN> (0449-0112)
6

>  <N_O> (0449-0112)
7

>  <logP> (0449-0112)
1.61

>  <logD> (0449-0112)
1.34

>  <logSw> (0449-0112)
-2.09

>  <PSA> (0449-0112)
110.13

>  <Chiral_centers> (0449-0112)
8

>  <Name> (0449-0112)
9a-formyl-3a,5a-dihydroxy-11a-methyl-1-(5-oxo-2,5-dihydrofuran-3-yl)-hexadecahydro-1H-cyclopenta[a]phenanthren-7-yl acetate

>  <Smile> (0449-0112)
CC(OC1CC2(C(C3C(C4(O)CCC(C4(C)CC3)C3=CC(=O)OC3)CC2)(C=O)CC1)O)=O

>  <Collection> (0449-0112)
DC

>  <InChI Key> (0449-0112)
JLZAERUVCODZQO-BWHPENOJSA-N

>  <PERCENTSP3> (0449-0112)
80

$$$$

  -ISIS-  -- StrEd -- 

 51 57  0  0  0  0  0  0  0  0999 V2000
    4.1224    1.4442    0.0000 C   0  0  0  0  0  0  0  0  0  0  0  0
    1.8916    1.0036    0.0000 C   0  0  0  0  0  0  0  0  0  0  0  0
    4.1224    2.2834    0.0000 C   0  0  0  0  0  0  0  0  0  0  0  0
   -3.1576   -3.8776    0.0000 C   0  0  0  0  0  0  0  0  0  0  0  0
   -3.9477   -4.8497    0.0000 C   0  0  0  0  0  0  0  0  0  0  0  0
    1.8916    0.1506    0.0000 C   0  0  0  0  0  0  0  0  0  0  0  0
   -5.4723   -4.8497    0.0000 C   0  0  0  0  0  0  0  0  0  0  0  0
    2.6471    1.4442    0.0000 C   0  0  2  0  0  0  0  0  0  0  0  0
    3.3531    1.0036    0.0000 C   0  0  1  0  0  0  0  0  0  0  0  0
   -3.9477   -2.8569    0.0000 O   0  0  0  0  0  0  0  0  0  0  0  0
    5.2695    3.3253    0.0000 C   0  0  0  0  0  0  0  0  0  0  0  0
   -3.1576   -1.4580    0.0000 C   0  0  0  0  0  0  0  0  0  0  0  0
   -3.1576   -2.7380    0.0000 O   0  0  0  0  0  0  0  0  0  0  0  0
    4.9128    2.5352    0.0000 C   0  0  0  0  0  0  0  0  0  0  0  0
   -6.2276   -3.8776    0.0000 C   0  0  0  0  0  0  0  0  0  0  0  0
   -5.4723   -2.8569    0.0000 C   0  0  0  0  0  0  0  0  0  0  0  0
   -0.3182   -1.4580    0.0000 C   0  0  0  0  0  0  0  0  0  0  0  0
   -1.0597   -0.5070    0.0000 O   0  0  0  0  0  0  0  0  0  0  0  0
   -1.0597   -2.3813    0.0000 C   0  0  0  0  0  0  0  0  0  0  0  0
    4.8988    4.0946    0.0000 C   0  0  0  0  0  0  0  0  0  0  0  0
   -2.4509   -2.3813    0.0000 C   0  0  0  0  0  0  0  0  0  0  0  0
   -2.4509   -0.5070    0.0000 C   0  0  0  0  0  0  0  0  0  0  0  0
    5.5003    4.6962    0.0000 C   0  0  0  0  0  0  0  0  0  0  0  0
    4.9128    1.1714    0.0000 C   0  0  0  0  0  0  0  0  0  0  0  0
    3.3531    2.7168    0.0000 C   0  0  0  0  0  0  0  0  0  0  0  0
    1.1223   -0.2551    0.0000 C   0  0  0  0  0  0  0  0  0  0  0  0
    1.1223    1.4442    0.0000 C   0  0  0  0  0  0  0  0  0  0  0  0
    2.6471    2.2834    0.0000 C   0  0  0  0  0  0  0  0  0  0  0  0
    6.2276    4.3116    0.0000 O   0  0  0  0  0  0  0  0  0  0  0  0
    5.3884    1.8638    0.0000 C   0  0  0  0  0  0  0  0  0  0  0  0
    3.3531    0.1506    0.0000 C   0  0  0  0  0  0  0  0  0  0  0  0
    2.6471   -0.2551    0.0000 C   0  0  0  0  0  0  0  0  0  0  0  0
    6.1086    3.4723    0.0000 C   0  0  0  0  0  0  0  0  0  0  0  0
    1.8916    1.8638    0.0000 C   0  0  0  0  0  0  0  0  0  0  0  0
   -0.3182   -0.3042    0.0000 O   0  0  0  0  0  0  0  0  0  0  0  0
    0.4163    0.1506    0.0000 C   0  0  0  0  0  0  0  0  0  0  0  0
    5.1856    5.7381    0.0000 O   0  0  0  0  0  0  0  0  0  0  0  0
    4.1086    0.3881    0.0000 O   0  0  0  0  0  0  0  0  0  0  0  0
   -3.9477   -5.7381    0.0000 O   0  0  0  0  0  0  0  0  0  0  0  0
    1.8916   -0.9896    0.0000 O   0  0  0  0  0  0  0  0  0  0  0  0
    1.1223    2.2834    0.0000 O   0  0  0  0  0  0  0  0  0  0  0  0
   -5.4723   -3.9615    0.0000 O   0  0  0  0  0  0  0  0  0  0  0  0
   -6.2276   -5.0387    0.0000 O   0  0  0  0  0  0  0  0  0  0  0  0
    0.4163    1.0036    0.0000 C   0  0  0  0  0  0  0  0  0  0  0  0
    4.1086    3.2905    0.0000 C   0  0  0  0  0  0  0  0  0  0  0  0
   -2.4509   -3.2204    0.0000 O   0  0  0  0  0  0  0  0  0  0  0  0
   -5.4931   -1.8146    0.0000 C   0  0  0  0  0  0  0  0  0  0  0  0
   -4.5142   -1.1924    0.0000 O   0  0  0  0  0  0  0  0  0  0  0  0
   -2.4509    0.4719    0.0000 C   0  0  0  0  0  0  0  0  0  0  0  0
    3.3395    1.9827    0.0000 H   0  0  0  0  0  0  0  0  0  0  0  0
    2.6471    0.5002    0.0000 H   0  0  0  0  0  0  0  0  0  0  0  0
  2  8  1  0  0  0  0
  3  1  1  0  0  0  0
  4 13  1  0  0  0  0
  5  4  1  0  0  0  0
  6 32  1  0  0  0  0
  7  5  1  0  0  0  0
  8  9  1  0  0  0  0
  9  1  1  0  0  0  0
 10  4  1  0  0  0  0
 14 11  1  0  0  0  0
 12 21  1  0  0  0  0
 12 13  1  0  0  0  0
 14  3  1  0  0  0  0
 15 16  1  0  0  0  0
 16 10  1  0  0  0  0
 17 35  1  0  0  0  0
 18 17  1  0  0  0  0
 19 17  1  0  0  0  0
 20 11  2  0  0  0  0
 21 19  1  0  0  0  0
 22 18  1  0  0  0  0
 23 20  1  0  0  0  0
 24  1  1  0  0  0  0
 25  3  1  0  0  0  0
 26  6  1  0  0  0  0
 27  2  1  0  0  0  0
 28  8  1  0  0  0  0
 29 33  1  0  0  0  0
 30 24  1  0  0  0  0
 31  9  1  0  0  0  0
 32 31  1  0  0  0  0
 33 11  1  0  0  0  0
  2 34  1  0  0  0  0
 36 35  1  0  0  0  0
 36 26  1  0  0  0  0
 37 23  2  0  0  0  0
  1 38  1  0  0  0  0
  5 39  1  0  0  0  0
  6 40  1  0  0  0  0
 41 34  2  0  0  0  0
  7 42  1  0  0  0  0
 15 43  1  0  0  0  0
 44 27  1  0  0  0  0
  3 45  1  0  0  0  0
 21 46  1  0  0  0  0
 16 47  1  0  0  0  0
 48 47  1  0  0  0  0
 22 49  1  0  0  0  0
  9 50  1  1  0  0  0
  8 51  1  6  0  0  0
 30 14  1  0  0  0  0
 25 28  1  0  0  0  0
  2  6  1  0  0  0  0
 44 36  1  0  0  0  0
 29 23  1  0  0  0  0
 22 12  1  0  0  0  0
  7 15  1  0  0  0  0
M  END
>  <IDNUMBER> (0449-0121)
0449-0121

>  <available> (0449-0121)
39

>  <H_acceptor> (0449-0121)
14

>  <H_donor> (0449-0121)
7

>  <B_rotN> (0449-0121)
14

>  <N_O> (0449-0121)
14

>  <logP> (0449-0121)
-0.61

>  <logD> (0449-0121)
-1.63

>  <logSw> (0449-0121)
-4.22

>  <PSA> (0449-0121)
221.9

>  <Chiral_centers> (0449-0121)
17

>  <Name> (0449-0121)
3a,5a-dihydroxy-7-[(4-hydroxy-6-methyl-5-{[3,4,5-trihydroxy-6-(hydroxymethyl)oxan-2-yl]oxy}oxan-2-yl)oxy]-11a-methyl-1-(5-oxo-2,5-dihydrofuran-3-yl)-hexadecahydro-1H-cyclopenta[a]phenanthrene-9a-carba
ldehyde

>  <Smile> (0449-0121)
CC1C(OC2C(C(C(C(O2)CO)O)O)O)C(CC(OC2CC3(C(C4C(C5(O)CCC(C5(C)CC4)C4=CC(=O)OC4)CC3)(CC2)C=O)O)O1)O

>  <Collection> (0449-0121)
DC

>  <InChI Key> (0449-0121)
KQBVSIZPUWODNU-QMABQTMWSA-N

>  <PERCENTSP3> (0449-0121)
88.6

$$$$

  -ISIS-  -- StrEd -- 

 24 29  0  0  0  0  0  0  0  0999 V2000
   -0.7479    1.3978    0.0000 C   0  0  0  0  0  0  0  0  0  0  0  0
    1.3108   -0.0602    0.0000 N   0  0  0  0  0  0  0  0  0  0  0  0
   -0.7479    0.5471    0.0000 C   0  0  0  0  0  0  0  0  0  0  0  0
   -1.4310    0.1897    0.0000 N   0  0  0  0  0  0  0  0  0  0  0  0
    0.8554    0.6325    0.0000 C   0  0  0  0  0  0  0  0  0  0  0  0
    1.3234    1.3820    0.0000 C   0  0  0  0  0  0  0  0  0  0  0  0
    0.5267   -0.5313    0.0000 C   0  0  0  0  0  0  0  0  0  0  0  0
    2.0445   -0.5313    0.0000 C   0  0  1  0  0  0  0  0  0  0  0  0
   -0.1629    0.6325    0.0000 C   0  0  0  0  0  0  0  0  0  0  0  0
    1.3108   -1.8217    0.0000 C   0  0  0  0  0  0  0  0  0  0  0  0
   -2.1806    1.3978    0.0000 C   0  0  0  0  0  0  0  0  0  0  0  0
   -2.1806    0.5471    0.0000 C   0  0  0  0  0  0  0  0  0  0  0  0
    0.3843    1.8217    0.0000 C   0  0  0  0  0  0  0  0  0  0  0  0
    2.0445   -1.3789    0.0000 C   0  0  0  0  0  0  0  0  0  0  0  0
    0.5267   -1.3789    0.0000 C   0  0  0  0  0  0  0  0  0  0  0  0
    2.8130   -0.0285    0.0000 O   0  0  0  0  0  0  0  0  0  0  0  0
    0.1470    1.2081    0.0000 O   0  0  0  0  0  0  0  0  0  0  0  0
   -1.4310   -0.7052    0.0000 C   0  0  0  0  0  0  0  0  0  0  0  0
   -2.9015    1.7773    0.0000 C   0  0  0  0  0  0  0  0  0  0  0  0
   -2.9015    0.1897    0.0000 C   0  0  0  0  0  0  0  0  0  0  0  0
    2.8287   -1.8057    0.0000 C   0  0  0  0  0  0  0  0  0  0  0  0
    3.5941   -1.3187    0.0000 C   0  0  0  0  0  0  0  0  0  0  0  0
   -3.5941    1.3978    0.0000 C   0  0  0  0  0  0  0  0  0  0  0  0
   -3.5941    0.5471    0.0000 C   0  0  0  0  0  0  0  0  0  0  0  0
  6  2  1  0  0  0  0
  3  1  1  0  0  0  0
  4  3  1  0  0  0  0
  5  9  1  0  0  0  0
  6 13  1  0  0  0  0
  7  3  1  0  0  0  0
  8  2  1  0  0  0  0
  9  1  1  0  0  0  0
 10  5  1  0  0  0  0
 11  1  1  0  0  0  0
 12 11  2  0  0  0  0
 13  1  1  0  0  0  0
 14 10  1  0  0  0  0
 15  7  1  0  0  0  0
  8 16  1  6  0  0  0
  9 17  1  0  0  0  0
 18  4  1  0  0  0  0
 19 11  1  0  0  0  0
 20 12  1  0  0  0  0
 14 21  1  0  0  0  0
 22 21  1  0  0  0  0
 23 19  2  0  0  0  0
 24 23  1  0  0  0  0
  6  5  1  0  0  0  0
  4 12  1  0  0  0  0
  2  7  1  0  0  0  0
 15 10  1  0  0  0  0
 24 20  2  0  0  0  0
  8 14  1  0  0  0  0
M  END
>  <IDNUMBER> (0449-0159)
0449-0159

>  <available> (0449-0159)
289

>  <H_acceptor> (0449-0159)
2

>  <H_donor> (0449-0159)
2

>  <B_rotN> (0449-0159)
2

>  <N_O> (0449-0159)
4

>  <logP> (0449-0159)
1.89

>  <logD> (0449-0159)
1.6

>  <logSw> (0449-0159)
-0.96

>  <PSA> (0449-0159)
46.94

>  <Chiral_centers> (0449-0159)
9

>  <Name> (0449-0159)
(14R)-13-ethyl-8-methyl-8,15-diazahexacyclo[14.2.1.0~1,9~.0~2,7~.0~10,15~.0~12,17~]nonadeca-2(7),3,5-triene-14,18-diol

>  <Smile> (0449-0159)
c1cc2N(C3C4(CC5N6C3CC(C5C4O)C(C6O)CC)c2cc1)C

>  <Collection> (0449-0159)
DC

>  <InChI Key> (0449-0159)
CJDRUOGAGYHKKD-IMRLRPOPSA-N

>  <PERCENTSP3> (0449-0159)
70

$$$$

  -ISIS-  -- StrEd -- 

 24 26  0  0  0  0  0  0  0  0999 V2000
   -0.2706    1.7693    0.0000 C   0  0  0  0  0  0  0  0  0  0  0  0
    0.5499    2.2650    0.0000 C   0  0  0  0  0  0  0  0  0  0  0  0
   -1.9629    1.7693    0.0000 O   0  0  0  0  0  0  0  0  0  0  0  0
   -1.1140    2.2650    0.0000 C   0  0  0  0  0  0  0  0  0  0  0  0
    1.3988    1.7693    0.0000 O   0  0  0  0  0  0  0  0  0  0  0  0
   -2.0599   -1.1254    0.0000 C   0  0  0  0  0  0  0  0  0  0  0  0
   -1.9345    0.8120    0.0000 C   0  0  0  0  0  0  0  0  0  0  0  0
   -0.2706    0.8120    0.0000 C   0  0  0  0  0  0  0  0  0  0  0  0
   -1.0912    0.3505    0.0000 C   0  0  1  0  0  0  0  0  0  0  0  0
   -1.0912   -0.6353    0.0000 O   0  0  0  0  0  0  0  0  0  0  0  0
    2.2479    2.2650    0.0000 C   0  0  0  0  0  0  0  0  0  0  0  0
    1.3988    3.7122    0.0000 C   0  0  0  0  0  0  0  0  0  0  0  0
    0.5499    3.2507    0.0000 C   0  0  0  0  0  0  0  0  0  0  0  0
   -2.0883   -2.0825    0.0000 C   0  0  0  0  0  0  0  0  0  0  0  0
    2.2479    3.2507    0.0000 C   0  0  0  0  0  0  0  0  0  0  0  0
   -2.9773   -0.4871    0.0000 O   0  0  0  0  0  0  0  0  0  0  0  0
   -1.1140    3.2507    0.0000 C   0  0  0  0  0  0  0  0  0  0  0  0
    3.0969    1.7693    0.0000 O   0  0  0  0  0  0  0  0  0  0  0  0
   -0.2706    3.7122    0.0000 C   0  0  0  0  0  0  0  0  0  0  0  0
   -1.0228   -2.5613    0.0000 C   0  0  0  0  0  0  0  0  0  0  0  0
   -2.7549    0.3220    0.0000 C   0  0  0  0  0  0  0  0  0  0  0  0
   -2.8918    1.0342    0.0000 C   0  0  0  0  0  0  0  0  0  0  0  0
   -3.0969   -2.5613    0.0000 C   0  0  0  0  0  0  0  0  0  0  0  0
   -1.0228   -3.7122    0.0000 C   0  0  0  0  0  0  0  0  0  0  0  0
  2  1  1  0  0  0  0
  3  4  1  0  0  0  0
  4  1  2  0  0  0  0
  5  2  1  0  0  0  0
  6 10  1  0  0  0  0
  7  9  1  0  0  0  0
  8  1  1  0  0  0  0
  9  8  1  0  0  0  0
  9 10  1  1  0  0  0
 11  5  1  0  0  0  0
 12 13  1  0  0  0  0
 13  2  2  0  0  0  0
 14  6  1  0  0  0  0
 15 12  2  0  0  0  0
 16  6  2  0  0  0  0
 17  4  1  0  0  0  0
 18 11  2  0  0  0  0
 19 17  2  0  0  0  0
 20 14  2  0  0  0  0
  7 21  1  0  0  0  0
 22  7  1  0  0  0  0
 23 14  1  0  0  0  0
 24 20  1  0  0  0  0
  3  7  1  0  0  0  0
 19 13  1  0  0  0  0
 11 15  1  0  0  0  0
M  END
>  <IDNUMBER> (0080-0003)
0080-0003

>  <available> (0080-0003)
3818

>  <H_acceptor> (0080-0003)
5

>  <H_donor> (0080-0003)
0

>  <B_rotN> (0080-0003)
3

>  <N_O> (0080-0003)
5

>  <logP> (0080-0003)
3.85

>  <logD> (0080-0003)
3.84

>  <logSw> (0080-0003)
-5.95

>  <PSA> (0080-0003)
61.83

>  <Chiral_centers> (0080-0003)
1

>  <Name> (0080-0003)
8,8-dimethyl-2-oxo-2H,8H,9H,10H-pyrano[2,3-h]chromen-9-yl (2E)-2-methylbut-2-enoate

>  <Smile> (0080-0003)
CC=C(C(OC1C(Oc2c(C1)c1OC(C=Cc1cc2)=O)(C)C)=O)C

>  <Collection> (0080-0003)
DC

>  <InChI Key> (0080-0003)
RRHCDWLSHIIIIT-IWOOQVRJSA-N

>  <PERCENTSP3> (0080-0003)
36.8

$$$$

  -ISIS-  -- StrEd -- 

 18 20  0  0  0  0  0  0  0  0999 V2000
    0.3294   -0.4905    0.0000 C   0  0  0  0  0  0  0  0  0  0  0  0
    0.3294    0.5255    0.0000 C   0  0  0  0  0  0  0  0  0  0  0  0
   -0.5356   -0.9783    0.0000 C   0  0  0  0  0  0  0  0  0  0  0  0
   -1.3956   -0.4905    0.0000 C   0  0  0  0  0  0  0  0  0  0  0  0
   -1.3956    0.5255    0.0000 C   0  0  0  0  0  0  0  0  0  0  0  0
   -0.5356    1.0084    0.0000 C   0  0  0  0  0  0  0  0  0  0  0  0
    1.1945   -0.9783    0.0000 O   0  0  0  0  0  0  0  0  0  0  0  0
    1.1945    1.0084    0.0000 C   0  0  0  0  0  0  0  0  0  0  0  0
    2.0545   -0.4905    0.0000 C   0  0  0  0  0  0  0  0  0  0  0  0
    2.0545    0.5255    0.0000 C   0  0  0  0  0  0  0  0  0  0  0  0
   -2.3664   -0.7972    0.0000 O   0  0  0  0  0  0  0  0  0  0  0  0
    2.9247   -0.9984    0.0000 O   0  0  0  0  0  0  0  0  0  0  0  0
   -0.5356   -1.9943    0.0000 O   0  0  0  0  0  0  0  0  0  0  0  0
   -0.5356    2.0193    0.0000 O   0  0  0  0  0  0  0  0  0  0  0  0
   -2.3664    0.8273    0.0000 C   0  0  0  0  0  0  0  0  0  0  0  0
   -2.9247    0.0175    0.0000 C   0  0  0  0  0  0  0  0  0  0  0  0
    0.3294   -2.5022    0.0000 C   0  0  0  0  0  0  0  0  0  0  0  0
    0.3294    2.5022    0.0000 C   0  0  0  0  0  0  0  0  0  0  0  0
  2  1  2  0  0  0  0
  3  1  1  0  0  0  0
  4  3  2  0  0  0  0
  5  4  1  0  0  0  0
  6  2  1  0  0  0  0
  7  1  1  0  0  0  0
  8  2  1  0  0  0  0
  9  7  1  0  0  0  0
 10  9  1  0  0  0  0
 11  4  1  0  0  0  0
 12  9  2  0  0  0  0
 13  3  1  0  0  0  0
 14  6  1  0  0  0  0
 15  5  1  0  0  0  0
 16 11  1  0  0  0  0
 17 13  1  0  0  0  0
 18 14  1  0  0  0  0
  5  6  2  0  0  0  0
 10  8  2  0  0  0  0
 16 15  2  0  0  0  0
M  END
>  <IDNUMBER> (0080-0005)
0080-0005

>  <available> (0080-0005)
296

>  <H_acceptor> (0080-0005)
5

>  <H_donor> (0080-0005)
0

>  <B_rotN> (0080-0005)
2

>  <N_O> (0080-0005)
5

>  <logP> (0080-0005)
1.679

>  <logD> (0080-0005)
1.618

>  <logSw> (0080-0005)
-2.67

>  <PSA> (0080-0005)
57.9

>  <Chiral_centers> (0080-0005)
0

>  <Name> (0080-0005)
4,9-dimethoxy-7H-furo[3,2-g]chromen-7-one

>  <Smile> (0080-0005)
c12c(c(c3c(c1OC)occ3)OC)\C=C/C(O2)=O

>  <Collection> (0080-0005)
DC

>  <CLNUMBER> (0080-0005)
CL5282

>  <InChI Key> (0080-0005)
DFMAXQKDIGCMTL-UHFFFAOYSA-N

>  <PERCENTSP3> (0080-0005)
15.4

$$$$

  -ISIS-  -- StrEd -- 

 26 30  0  0  0  0  0  0  0  0999 V2000
    0.4550    0.0609    0.0000 C   0  0  1  0  0  0  0  0  0  0  0  0
   -0.5279    0.1045    0.0000 C   0  0  0  0  0  0  0  0  0  0  0  0
   -1.0634    0.8783    0.0000 C   0  0  0  0  0  0  0  0  0  0  0  0
   -1.0634   -0.6886    0.0000 N   0  0  0  0  0  0  0  0  0  0  0  0
    1.0874    0.7859    0.0000 C   0  0  1  0  0  0  0  0  0  0  0  0
    0.9465    1.7398    0.0000 N   0  0  2  0  0  0  0  0  0  0  0  0
    2.2068    0.8881    0.0000 C   0  0  0  0  0  0  0  0  0  0  0  0
   -0.2702   -1.4817    0.0000 C   0  0  0  0  0  0  0  0  0  0  0  0
   -1.9977    0.5961    0.0000 C   0  0  0  0  0  0  0  0  0  0  0  0
   -1.9977   -0.4062    0.0000 C   0  0  0  0  0  0  0  0  0  0  0  0
    2.3138    0.2799    0.0000 C   0  0  0  0  0  0  0  0  0  0  0  0
    0.4890   -0.8150    0.0000 C   0  0  0  0  0  0  0  0  0  0  0  0
   -0.8053    1.8371    0.0000 C   0  0  0  0  0  0  0  0  0  0  0  0
    1.2968    0.0513    0.0000 C   0  0  1  0  0  0  0  0  0  0  0  0
    1.8468    1.6473    0.0000 C   0  0  0  0  0  0  0  0  0  0  0  0
    0.1045    2.2069    0.0000 C   0  0  0  0  0  0  0  0  0  0  0  0
   -1.3067   -1.4331    0.0000 O   0  0  0  0  0  0  0  0  0  0  0  0
   -0.0121   -2.2069    0.0000 O   0  0  0  0  0  0  0  0  0  0  0  0
    2.7567    1.4624    0.0000 C   0  0  0  0  0  0  0  0  0  0  0  0
   -2.8395    1.0878    0.0000 C   0  0  0  0  0  0  0  0  0  0  0  0
   -2.8395   -0.8977    0.0000 C   0  0  0  0  0  0  0  0  0  0  0  0
    1.1898   -2.0657    0.0000 C   0  0  0  0  0  0  0  0  0  0  0  0
    3.7007    1.5061    0.0000 C   0  0  0  0  0  0  0  0  0  0  0  0
   -3.7007    0.5961    0.0000 C   0  0  0  0  0  0  0  0  0  0  0  0
   -3.7007   -0.4062    0.0000 C   0  0  0  0  0  0  0  0  0  0  0  0
    1.1655    0.3286    0.0000 H   0  0  0  0  0  0  0  0  0  0  0  0
  2  1  1  0  0  0  0
  3  2  2  0  0  0  0
  4  2  1  0  0  0  0
  5  1  1  0  0  0  0
  6  5  1  0  0  0  0
  7  5  1  0  0  0  0
  1  8  1  1  0  0  0
  9  3  1  0  0  0  0
 10  4  1  0  0  0  0
 11 14  1  0  0  0  0
 12  1  1  0  0  0  0
 13  3  1  0  0  0  0
 14 12  1  0  0  0  0
 14 15  1  1  0  0  0
 16  6  1  0  0  0  0
 17  8  2  0  0  0  0
 18  8  1  0  0  0  0
 19  7  1  0  0  0  0
 20  9  1  0  0  0  0
 21 10  1  0  0  0  0
 22 18  1  0  0  0  0
 23 19  1  0  0  0  0
 24 20  2  0  0  0  0
 25 21  2  0  0  0  0
  5 26  1  6  0  0  0
  6 15  1  1  0  0  0
  7 11  2  0  0  0  0
 16 13  1  0  0  0  0
  9 10  2  0  0  0  0
 25 24  1  0  0  0  0
M  END
>  <IDNUMBER> (0080-0011)
0080-0011

>  <available> (0080-0011)
905

>  <H_acceptor> (0080-0011)
2

>  <H_donor> (0080-0011)
1

>  <B_rotN> (0080-0011)
2

>  <N_O> (0080-0011)
4

>  <logP> (0080-0011)
3.363

>  <logD> (0080-0011)
2.87017

>  <logSw> (0080-0011)
-5.8047

>  <PSA> (0080-0011)
45.33

>  <Chiral_centers> (0080-0011)
3

>  <Name> (0080-0011)
methyl (2alpha,18beta)-3,4-didehydroibogamine-18-carboxylate

>  <Smile> (0080-0011)
c12[C]3([C@H]4([N@@](CCc1c1ccccc1[nH]2)C[C@H](C=C4CC)C3))C(=O)OC

>  <Collection> (0080-0011)
DC

>  <InChI Key> (0080-0011)
CMKFQVZJOWHHDV-LPLGYCIKSA-N

>  <PERCENTSP3> (0080-0011)
47.6

$$$$

  -ISIS-  -- StrEd -- 

 19 21  0  0  0  0  0  0  0  0999 V2000
   -0.4018    0.5028    0.0000 C   0  0  0  0  0  0  0  0  0  0  0  0
    0.4596    1.0000    0.0000 C   0  0  0  0  0  0  0  0  0  0  0  0
   -1.2920   -1.0001    0.0000 C   0  0  0  0  0  0  0  0  0  0  0  0
   -2.1533    0.5028    0.0000 O   0  0  0  0  0  0  0  0  0  0  0  0
   -1.2632    1.0000    0.0000 C   0  0  0  0  0  0  0  0  0  0  0  0
   -2.1533   -0.4972    0.0000 C   0  0  0  0  0  0  0  0  0  0  0  0
   -0.4308   -0.4972    0.0000 C   0  0  0  0  0  0  0  0  0  0  0  0
    1.3439    0.5028    0.0000 O   0  0  0  0  0  0  0  0  0  0  0  0
    2.2052    1.0000    0.0000 C   0  0  0  0  0  0  0  0  0  0  0  0
    1.3439    2.4972    0.0000 C   0  0  0  0  0  0  0  0  0  0  0  0
    0.4596    2.0001    0.0000 C   0  0  0  0  0  0  0  0  0  0  0  0
    2.2052    2.0001    0.0000 C   0  0  0  0  0  0  0  0  0  0  0  0
   -1.2920   -2.0002    0.0000 N   0  0  0  0  0  0  0  0  0  0  0  0
   -1.2632    2.0001    0.0000 C   0  0  0  0  0  0  0  0  0  0  0  0
    3.0956    0.5028    0.0000 O   0  0  0  0  0  0  0  0  0  0  0  0
   -0.4018    2.4972    0.0000 C   0  0  0  0  0  0  0  0  0  0  0  0
   -2.1533   -2.4972    0.0000 O   0  0  0  0  0  0  0  0  0  0  0  0
   -3.0956   -0.2198    0.0000 C   0  0  0  0  0  0  0  0  0  0  0  0
   -3.0088   -1.0001    0.0000 C   0  0  0  0  0  0  0  0  0  0  0  0
  2  1  1  0  0  0  0
  3  7  1  0  0  0  0
  4  5  1  0  0  0  0
  5  1  2  0  0  0  0
  6  3  1  0  0  0  0
  7  1  1  0  0  0  0
  8  2  1  0  0  0  0
  9  8  1  0  0  0  0
 10 11  1  0  0  0  0
 11  2  2  0  0  0  0
 12 10  2  0  0  0  0
 13  3  2  0  0  0  0
 14  5  1  0  0  0  0
 15  9  2  0  0  0  0
 16 14  2  0  0  0  0
 17 13  1  0  0  0  0
  6 18  1  0  0  0  0
 19  6  1  0  0  0  0
  4  6  1  0  0  0  0
 16 11  1  0  0  0  0
  9 12  1  0  0  0  0
M  END
>  <IDNUMBER> (0080-0023)
0080-0023

>  <available> (0080-0023)
284

>  <H_acceptor> (0080-0023)
5

>  <H_donor> (0080-0023)
1

>  <B_rotN> (0080-0023)
1

>  <N_O> (0080-0023)
5

>  <logP> (0080-0023)
1.78

>  <logD> (0080-0023)
2.37

>  <logSw> (0080-0023)
-3.31

>  <PSA> (0080-0023)
68.12

>  <Chiral_centers> (0080-0023)
0

>  <Name> (0080-0023)
(9Z)-9-(hydroxyimino)-8,8-dimethyl-2H,8H,9H,10H-pyrano[2,3-h]chromen-2-one

>  <Smile> (0080-0023)
CC1(C(Cc2c(O1)ccc1c2OC(C=C1)=O)=NO)C

>  <Collection> (0080-0023)
DC

>  <InChI Key> (0080-0023)
UTAYRBLJTNHOGF-PTNGSMBKSA-N

>  <PERCENTSP3> (0080-0023)
28.6

$$$$

  -ISIS-  -- StrEd -- 

 17 19  0  0  0  0  0  0  0  0999 V2000
   -2.1875    0.0145    0.0000 C   0  0  0  0  0  0  0  0  0  0  0  0
   -1.6371   -0.7827    0.0000 O   0  0  0  0  0  0  0  0  0  0  0  0
   -0.6737   -0.4790    0.0000 C   0  0  0  0  0  0  0  0  0  0  0  0
   -1.6371    0.7827    0.0000 C   0  0  0  0  0  0  0  0  0  0  0  0
   -0.6737    0.4845    0.0000 C   0  0  0  0  0  0  0  0  0  0  0  0
    1.0866   -0.5074    0.0000 C   0  0  0  0  0  0  0  0  0  0  0  0
    1.9410   -1.0063    0.0000 O   0  0  0  0  0  0  0  0  0  0  0  0
    0.2035   -1.0063    0.0000 C   0  0  0  0  0  0  0  0  0  0  0  0
    1.0866    0.5074    0.0000 C   0  0  0  0  0  0  0  0  0  0  0  0
    2.8183   -0.4790    0.0000 C   0  0  0  0  0  0  0  0  0  0  0  0
    1.9410    1.0063    0.0000 C   0  0  0  0  0  0  0  0  0  0  0  0
    0.2035    1.0063    0.0000 C   0  0  0  0  0  0  0  0  0  0  0  0
    2.8183    0.4845    0.0000 C   0  0  0  0  0  0  0  0  0  0  0  0
    3.7300   -0.9777    0.0000 O   0  0  0  0  0  0  0  0  0  0  0  0
   -3.2081    0.0716    0.0000 C   0  0  0  0  0  0  0  0  0  0  0  0
   -3.6726    0.9204    0.0000 C   0  0  0  0  0  0  0  0  0  0  0  0
   -3.7300   -0.7827    0.0000 C   0  0  0  0  0  0  0  0  0  0  0  0
  2  1  1  0  0  0  0
  3  2  1  0  0  0  0
  4  1  2  0  0  0  0
  5  4  1  0  0  0  0
  6  8  1  0  0  0  0
  7  6  1  0  0  0  0
  8  3  2  0  0  0  0
  9 12  1  0  0  0  0
 10  7  1  0  0  0  0
 11  9  1  0  0  0  0
 12  5  2  0  0  0  0
 13 11  2  0  0  0  0
 14 10  2  0  0  0  0
 15  1  1  0  0  0  0
 16 15  1  0  0  0  0
 17 15  1  0  0  0  0
  3  5  1  0  0  0  0
  6  9  2  0  0  0  0
 13 10  1  0  0  0  0
M  END
>  <IDNUMBER> (0080-0026)
0080-0026

>  <available> (0080-0026)
386

>  <H_acceptor> (0080-0026)
3

>  <H_donor> (0080-0026)
0

>  <B_rotN> (0080-0026)
1

>  <N_O> (0080-0026)
3

>  <logP> (0080-0026)
3.37

>  <logD> (0080-0026)
3.81

>  <logSw> (0080-0026)
-4.86

>  <PSA> (0080-0026)
39.44

>  <Chiral_centers> (0080-0026)
0

>  <Name> (0080-0026)
2-(propan-2-yl)-7H-furo[3,2-g]chromen-7-one

>  <Smile> (0080-0026)
CC(C1=Cc2c(O1)cc1c(c2)C=CC(O1)=O)C

>  <Collection> (0080-0026)
DC

>  <CLNUMBER> (0080-0026)
CL5282

>  <InChI Key> (0080-0026)
KVHBNBMOEQQULB-UHFFFAOYSA-N

>  <PERCENTSP3> (0080-0026)
21.4

$$$$

  -ISIS-  -- StrEd -- 

 33 36  0  0  0  0  0  0  0  0999 V2000
    0.0189   -1.5932    0.0000 C   0  0  0  0  0  0  0  0  0  0  0  0
    0.8664   -1.0812    0.0000 C   0  0  0  0  0  0  0  0  0  0  0  0
    1.7137   -1.5932    0.0000 C   0  0  0  0  0  0  0  0  0  0  0  0
    0.0189   -2.5986    0.0000 C   0  0  0  0  0  0  0  0  0  0  0  0
    1.7137   -2.5986    0.0000 C   0  0  0  0  0  0  0  0  0  0  0  0
    0.8664   -3.1106    0.0000 O   0  0  0  0  0  0  0  0  0  0  0  0
   -0.8661   -1.0812    0.0000 C   0  0  0  0  0  0  0  0  0  0  0  0
    0.8980   -0.0758    0.0000 N   0  0  0  0  0  0  0  0  0  0  0  0
   -3.5027    0.4363    0.0000 C   0  0  0  0  0  0  0  0  0  0  0  0
   -3.5027    1.4417    0.0000 N   0  0  0  0  0  0  0  0  0  0  0  0
   -2.6239   -0.0758    0.0000 C   0  0  0  0  0  0  0  0  0  0  0  0
    2.6239   -1.0812    0.0000 O   0  0  0  0  0  0  0  0  0  0  0  0
   -2.6239   -1.0812    0.0000 C   0  0  0  0  0  0  0  0  0  0  0  0
   -1.7134   -1.5932    0.0000 C   0  0  0  0  0  0  0  0  0  0  0  0
    3.4776   -1.5932    0.0000 C   0  0  0  0  0  0  0  0  0  0  0  0
   -0.8661   -3.1106    0.0000 C   0  0  0  0  0  0  0  0  0  0  0  0
   -4.3564   -0.0758    0.0000 O   0  0  0  0  0  0  0  0  0  0  0  0
    3.4776   -2.5986    0.0000 O   0  0  0  0  0  0  0  0  0  0  0  0
   -1.7134   -2.5986    0.0000 C   0  0  0  0  0  0  0  0  0  0  0  0
   -0.8914   -0.0758    0.0000 O   0  0  0  0  0  0  0  0  0  0  0  0
    2.2951   -3.4143    0.0000 C   0  0  0  0  0  0  0  0  0  0  0  0
    2.7188   -2.5986    0.0000 C   0  0  0  0  0  0  0  0  0  0  0  0
    1.7451    0.4047    0.0000 C   0  0  0  0  0  0  0  0  0  0  0  0
    0.0189    0.4047    0.0000 C   0  0  0  0  0  0  0  0  0  0  0  0
   -4.3564    1.9222    0.0000 C   0  0  0  0  0  0  0  0  0  0  0  0
   -2.6555    1.9222    0.0000 C   0  0  0  0  0  0  0  0  0  0  0  0
    4.3564   -1.1128    0.0000 C   0  0  0  0  0  0  0  0  0  0  0  0
    1.7137    1.4101    0.0000 C   0  0  0  0  0  0  0  0  0  0  0  0
   -2.6555    2.9275    0.0000 C   0  0  0  0  0  0  0  0  0  0  0  0
   -4.3564    2.9275    0.0000 C   0  0  0  0  0  0  0  0  0  0  0  0
    0.0189    1.4101    0.0000 C   0  0  0  0  0  0  0  0  0  0  0  0
   -3.5027    3.4143    0.0000 C   0  0  0  0  0  0  0  0  0  0  0  0
    0.8980    1.8968    0.0000 C   0  0  0  0  0  0  0  0  0  0  0  0
  2  1  1  0  0  0  0
  3  2  1  0  0  0  0
  4  1  2  0  0  0  0
  5  6  1  0  0  0  0
  6  4  1  0  0  0  0
  7  1  1  0  0  0  0
  2  8  1  0  0  0  0
  9 11  1  0  0  0  0
 10  9  1  0  0  0  0
 11 13  2  0  0  0  0
  3 12  1  0  0  0  0
 13 14  1  0  0  0  0
 14  7  2  0  0  0  0
 15 12  1  0  0  0  0
 16  4  1  0  0  0  0
 17  9  2  0  0  0  0
 18 15  2  0  0  0  0
 19 14  1  0  0  0  0
 20  7  1  0  0  0  0
  5 21  1  0  0  0  0
 22  5  1  0  0  0  0
 23  8  1  0  0  0  0
 24  8  1  0  0  0  0
 25 10  1  0  0  0  0
 26 10  1  0  0  0  0
 27 15  1  0  0  0  0
 28 23  1  0  0  0  0
 29 26  1  0  0  0  0
 30 25  1  0  0  0  0
 31 24  1  0  0  0  0
 32 29  1  0  0  0  0
 33 31  1  0  0  0  0
 19 16  2  0  0  0  0
  3  5  1  0  0  0  0
 33 28  1  0  0  0  0
 30 32  1  0  0  0  0
M  END
>  <IDNUMBER> (0080-0034)
0080-0034

>  <available> (0080-0034)
368

>  <H_acceptor> (0080-0034)
6

>  <H_donor> (0080-0034)
1

>  <B_rotN> (0080-0034)
7

>  <N_O> (0080-0034)
7

>  <logP> (0080-0034)
3.53

>  <logD> (0080-0034)
3.38

>  <logSw> (0080-0034)
-6.34

>  <PSA> (0080-0034)
79.31

>  <Chiral_centers> (0080-0034)
2

>  <Name> (0080-0034)
5-hydroxy-2,2-dimethyl-6-[(1E)-3-oxo-3-(piperidin-1-yl)prop-1-en-1-yl]-4-(piperidin-1-yl)-3,4-dihydro-2H-1-benzopyran-3-yl acetate

>  <Smile> (0080-0034)
C1CCN(C2c3c(c(C=CC(N4CCCCC4)=O)ccc3OC(C2OC(=O)C)(C)C)O)CC1

>  <Collection> (0080-0034)
DC

>  <InChI Key> (0080-0034)
FRDWBYRDTKNHAO-ACCUITESSA-N

>  <PERCENTSP3> (0080-0034)
61.5

$$$$

  -ISIS-  -- StrEd -- 

 39 41  0  0  0  0  0  0  0  0999 V2000
    0.2354   -1.4074    0.0000 C   0  0  0  0  0  0  0  0  0  0  0  0
   -1.8124   -1.4074    0.0000 C   0  0  0  0  0  0  0  0  0  0  0  0
    1.3038   -0.0509    0.0000 C   0  0  0  0  0  0  0  0  0  0  0  0
   -2.8808   -0.0509    0.0000 C   0  0  0  0  0  0  0  0  0  0  0  0
    2.4315    2.4508    0.0000 C   0  0  0  0  0  0  0  0  0  0  0  0
    2.9826    2.7560    0.0000 C   0  0  0  0  0  0  0  0  0  0  0  0
    0.2354    1.3737    0.0000 O   0  0  0  0  0  0  0  0  0  0  0  0
   -1.8124    1.3737    0.0000 C   0  0  0  0  0  0  0  0  0  0  0  0
    3.5297    2.4508    0.0000 O   0  0  0  0  0  0  0  0  0  0  0  0
    1.8804    2.7560    0.0000 C   0  0  0  0  0  0  0  0  0  0  0  0
    1.3336    2.4294    0.0000 O   0  0  0  0  0  0  0  0  0  0  0  0
    4.0807    2.7560    0.0000 C   0  0  0  0  0  0  0  0  0  0  0  0
    0.2354   -2.2215    0.0000 O   0  0  0  0  0  0  0  0  0  0  0  0
   -1.8124   -0.5215    0.0000 O   0  0  0  0  0  0  0  0  0  0  0  0
    2.4315    1.7978    0.0000 O   0  0  0  0  0  0  0  0  0  0  0  0
   -2.8808   -0.9666    0.0000 O   0  0  0  0  0  0  0  0  0  0  0  0
    3.5297    3.7140    0.0000 C   0  0  0  0  0  0  0  0  0  0  0  0
    2.9826    3.4087    0.0000 C   0  0  0  0  0  0  0  0  0  0  0  0
    4.0807    3.4087    0.0000 C   0  0  0  0  0  0  0  0  0  0  0  0
   -0.9179   -0.1017    0.0000 C   0  0  0  0  0  0  0  0  0  0  0  0
    1.0876   -2.7176    0.0000 C   0  0  0  0  0  0  0  0  0  0  0  0
    2.9826    1.4755    0.0000 C   0  0  0  0  0  0  0  0  0  0  0  0
   -3.7756   -1.4074    0.0000 C   0  0  0  0  0  0  0  0  0  0  0  0
   -3.7374    2.3490    0.0000 C   0  0  0  0  0  0  0  0  0  0  0  0
   -1.8124    2.2048    0.0000 C   0  0  0  0  0  0  0  0  0  0  0  0
    1.8804    3.4087    0.0000 C   0  0  0  0  0  0  0  0  0  0  0  0
    4.6276    2.4294    0.0000 O   0  0  0  0  0  0  0  0  0  0  0  0
   -2.8683    2.8364    0.0000 O   0  0  0  0  0  0  0  0  0  0  0  0
    3.5297    1.7978    0.0000 O   0  0  0  0  0  0  0  0  0  0  0  0
   -0.0698   -0.6231    0.0000 O   0  0  0  0  0  0  0  0  0  0  0  0
   -4.6276   -0.8988    0.0000 O   0  0  0  0  0  0  0  0  0  0  0  0
    1.1511   -3.7140    0.0000 O   0  0  0  0  0  0  0  0  0  0  0  0
   -4.6064    2.8069    0.0000 O   0  0  0  0  0  0  0  0  0  0  0  0
    2.4315    3.7140    0.0000 C   0  0  0  0  0  0  0  0  0  0  0  0
   -3.9069   -2.3912    0.0000 C   0  0  0  0  0  0  0  0  0  0  0  0
    1.9821   -2.2808    0.0000 C   0  0  0  0  0  0  0  0  0  0  0  0
   -0.7737    0.8735    0.0000 C   0  0  0  0  0  0  0  0  0  0  0  0
    2.9826    0.8438    0.0000 C   0  0  0  0  0  0  0  0  0  0  0  0
   -3.8051    1.3526    0.0000 C   0  0  0  0  0  0  0  0  0  0  0  0
  2  1  1  0  0  0  0
  3  1  1  0  0  0  0
  4  2  1  0  0  0  0
  5 10  2  0  0  0  0
  6  5  1  0  0  0  0
  7  3  1  0  0  0  0
  8  7  1  0  0  0  0
  9  6  1  0  0  0  0
 10 11  1  0  0  0  0
  3 11  1  0  0  0  0
 12  9  1  0  0  0  0
  1 13  1  0  0  0  0
  2 14  1  0  0  0  0
 15  5  1  0  0  0  0
  4 16  1  0  0  0  0
 17 18  1  0  0  0  0
 18 34  1  0  0  0  0
 19 17  2  0  0  0  0
 20 14  1  0  0  0  0
 21 13  1  0  0  0  0
 22 15  1  0  0  0  0
 23 16  1  0  0  0  0
 24 28  1  0  0  0  0
  8 25  1  0  0  0  0
 26 10  1  0  0  0  0
 27 12  2  0  0  0  0
 28 25  1  0  0  0  0
 29 22  2  0  0  0  0
 30 20  2  0  0  0  0
 31 23  2  0  0  0  0
 32 21  2  0  0  0  0
 33 24  2  0  0  0  0
 34 26  2  0  0  0  0
 35 23  1  0  0  0  0
 36 21  1  0  0  0  0
 37 20  1  0  0  0  0
 38 22  1  0  0  0  0
 39 24  1  0  0  0  0
  8  4  1  0  0  0  0
 18  6  2  0  0  0  0
 19 12  1  0  0  0  0
M  END
>  <IDNUMBER> (0080-0038)
0080-0038

>  <available> (0080-0038)
665

>  <H_acceptor> (0080-0038)
14

>  <H_donor> (0080-0038)
0

>  <B_rotN> (0080-0038)
13

>  <N_O> (0080-0038)
14

>  <logP> (0080-0038)
0.91

>  <logD> (0080-0038)
-0.52

>  <logSw> (0080-0038)
-2.31

>  <PSA> (0080-0038)
176.26

>  <Chiral_centers> (0080-0038)
5

>  <Name> (0080-0038)
[3,4,5-tris(acetyloxy)-6-{[8-(acetyloxy)-2-oxo-2H-chromen-7-yl]oxy}oxan-2-yl]methyl acetate

>  <Smile> (0080-0038)
CC(OCC1C(C(C(OC(=O)C)C(O1)Oc1c(OC(=O)C)c2c(C=CC(O2)=O)cc1)OC(=O)C)OC(=O)C)=O

>  <Collection> (0080-0038)
DC

>  <CLNUMBER> (0080-0038)
CV0119

>  <InChI Key> (0080-0038)
PSXCFRFPFFZUJJ-UHFFFAOYSA-N

>  <PERCENTSP3> (0080-0038)
44

$$$$

  -ISIS-  -- StrEd -- 

 21 24  0  0  0  0  0  0  0  0999 V2000
    2.1326    2.5893    0.0000 O   0  0  0  0  0  0  0  0  0  0  0  0
    1.2568    2.1042    0.0000 C   0  0  0  0  0  0  0  0  0  0  0  0
    0.2866   -1.3986    0.0000 C   0  0  0  0  0  0  0  0  0  0  0  0
    1.1624   -0.8884    0.0000 C   0  0  0  0  0  0  0  0  0  0  0  0
    2.1010    1.5940    0.0000 C   0  0  0  0  0  0  0  0  0  0  0  0
    2.0128   -1.3986    0.0000 C   0  0  0  0  0  0  0  0  0  0  0  0
    0.2866   -2.4003    0.0000 C   0  0  0  0  0  0  0  0  0  0  0  0
    2.0128   -2.4003    0.0000 C   0  0  0  0  0  0  0  0  0  0  0  0
    1.1624   -2.9107    0.0000 O   0  0  0  0  0  0  0  0  0  0  0  0
   -0.5576   -0.8884    0.0000 C   0  0  0  0  0  0  0  0  0  0  0  0
   -0.5576   -2.9107    0.0000 C   0  0  0  0  0  0  0  0  0  0  0  0
   -1.4082   -2.4003    0.0000 C   0  0  0  0  0  0  0  0  0  0  0  0
   -1.4082   -1.3986    0.0000 C   0  0  0  0  0  0  0  0  0  0  0  0
    1.1937    0.1134    0.0000 O   0  0  0  0  0  0  0  0  0  0  0  0
   -2.3467   -2.7028    0.0000 O   0  0  0  0  0  0  0  0  0  0  0  0
    2.0695    0.5923    0.0000 C   0  0  0  0  0  0  0  0  0  0  0  0
   -2.9201   -1.8837    0.0000 C   0  0  0  0  0  0  0  0  0  0  0  0
   -2.3467   -1.0962    0.0000 C   0  0  0  0  0  0  0  0  0  0  0  0
    2.9201   -2.9107    0.0000 O   0  0  0  0  0  0  0  0  0  0  0  0
    0.3938    1.4994    0.0000 C   0  0  0  0  0  0  0  0  0  0  0  0
    0.6646    2.9107    0.0000 C   0  0  0  0  0  0  0  0  0  0  0  0
  2  1  1  0  0  0  0
  3  4  1  0  0  0  0
  4 14  1  0  0  0  0
  5  1  1  0  0  0  0
  6  4  2  0  0  0  0
  7  3  2  0  0  0  0
  8  6  1  0  0  0  0
  9  8  1  0  0  0  0
 10  3  1  0  0  0  0
 11  7  1  0  0  0  0
 12 13  1  0  0  0  0
 13 10  2  0  0  0  0
 14 16  1  0  0  0  0
 15 12  1  0  0  0  0
  5 16  1  0  0  0  0
 17 18  2  0  0  0  0
 18 13  1  0  0  0  0
 19  8  2  0  0  0  0
 20  2  1  0  0  0  0
 21  2  1  0  0  0  0
  2  5  1  0  0  0  0
  7  9  1  0  0  0  0
 12 11  2  0  0  0  0
 15 17  1  0  0  0  0
M  END
>  <IDNUMBER> (0080-0039)
0080-0039

>  <available> (0080-0039)
262

>  <H_acceptor> (0080-0039)
5

>  <H_donor> (0080-0039)
0

>  <B_rotN> (0080-0039)
3

>  <N_O> (0080-0039)
5

>  <logP> (0080-0039)
1.34

>  <logD> (0080-0039)
2.91

>  <logSw> (0080-0039)
-5.09

>  <PSA> (0080-0039)
61.2

>  <Chiral_centers> (0080-0039)
1

>  <Name> (0080-0039)
5-[(3,3-dimethyloxiran-2-yl)methoxy]-7H-furo[3,2-g]chromen-7-one

>  <Smile> (0080-0039)
CC1(OC1COC1c2c(OC(C=1)=O)cc1c(c2)C=CO1)C

>  <Collection> (0080-0039)
DC

>  <CLNUMBER> (0080-0039)
CL5282

>  <InChI Key> (0080-0039)
NUCBCBCPICFGMZ-UHFFFAOYSA-N

>  <PERCENTSP3> (0080-0039)
31.3

$$$$

  -ISIS-  -- StrEd -- 

 28 31  0  0  0  0  0  0  0  0999 V2000
   -0.3756    1.0538    0.0000 C   0  0  0  0  0  0  0  0  0  0  0  0
   -0.3756    2.0318    0.0000 C   0  0  0  0  0  0  0  0  0  0  0  0
    0.4861    2.5383    0.0000 C   0  0  0  0  0  0  0  0  0  0  0  0
   -1.2430    0.5531    0.0000 C   0  0  0  0  0  0  0  0  0  0  0  0
    0.6433   -3.3769    0.0000 N   0  3  0  0  0  0  0  0  0  0  0  0
   -1.2430    2.5383    0.0000 C   0  0  0  0  0  0  0  0  0  0  0  0
   -2.1106    2.0318    0.0000 O   0  0  0  0  0  0  0  0  0  0  0  0
   -2.1106    1.0538    0.0000 C   0  0  0  0  0  0  0  0  0  0  0  0
    1.3537    2.0318    0.0000 O   0  0  0  0  0  0  0  0  0  0  0  0
    0.7133    0.5123    0.0000 C   0  0  0  0  0  0  0  0  0  0  0  0
    2.2211    2.5383    0.0000 C   0  0  0  0  0  0  0  0  0  0  0  0
    0.4861    3.5165    0.0000 C   0  0  0  0  0  0  0  0  0  0  0  0
    1.3537    3.9881    0.0000 C   0  0  0  0  0  0  0  0  0  0  0  0
    0.7423   -2.3813    0.0000 C   0  0  0  0  0  0  0  0  0  0  0  0
    2.2211    3.5165    0.0000 C   0  0  0  0  0  0  0  0  0  0  0  0
   -0.2358   -3.8659    0.0000 O   0  5  0  0  0  0  0  0  0  0  0  0
    1.4120   -4.0173    0.0000 O   0  0  0  0  0  0  0  0  0  0  0  0
   -1.2430    3.5165    0.0000 C   0  0  0  0  0  0  0  0  0  0  0  0
   -1.2139   -0.4541    0.0000 O   0  0  0  0  0  0  0  0  0  0  0  0
    3.0887    2.0611    0.0000 O   0  0  0  0  0  0  0  0  0  0  0  0
   -0.3756    4.0173    0.0000 C   0  0  0  0  0  0  0  0  0  0  0  0
    0.7947   -0.4425    0.0000 C   0  0  0  0  0  0  0  0  0  0  0  0
    1.6505   -1.9330    0.0000 C   0  0  0  0  0  0  0  0  0  0  0  0
   -0.0727   -1.8806    0.0000 C   0  0  0  0  0  0  0  0  0  0  0  0
    1.6740   -0.9549    0.0000 C   0  0  0  0  0  0  0  0  0  0  0  0
   -0.0727   -0.9025    0.0000 C   0  0  0  0  0  0  0  0  0  0  0  0
   -2.9780    0.5531    0.0000 C   0  0  0  0  0  0  0  0  0  0  0  0
   -3.0887    1.3042    0.0000 C   0  0  0  0  0  0  0  0  0  0  0  0
  2  1  1  0  0  0  0
  3  2  1  0  0  0  0
  4  1  1  0  0  0  0
  5 14  1  0  0  0  0
  6  2  2  0  0  0  0
  7  8  1  0  0  0  0
  8  4  1  0  0  0  0
  9  3  1  0  0  0  0
 10  1  2  0  0  0  0
 11  9  1  0  0  0  0
 12  3  2  0  0  0  0
 13 12  1  0  0  0  0
 14 24  2  0  0  0  0
 15 13  2  0  0  0  0
 16  5  1  0  0  0  0
 17  5  2  0  0  0  0
 18  6  1  0  0  0  0
 19  4  2  0  0  0  0
 20 11  2  0  0  0  0
 21 18  2  0  0  0  0
 22 10  1  0  0  0  0
 23 25  2  0  0  0  0
 24 26  1  0  0  0  0
 25 22  1  0  0  0  0
 26 22  2  0  0  0  0
  8 27  1  0  0  0  0
 28  8  1  0  0  0  0
  7  6  1  0  0  0  0
 23 14  1  0  0  0  0
 21 12  1  0  0  0  0
 11 15  1  0  0  0  0
M  CHG  2   5   1  16  -1
M  END
>  <IDNUMBER> (0080-0054)
0080-0054

>  <available> (0080-0054)
893

>  <H_acceptor> (0080-0054)
6

>  <H_donor> (0080-0054)
0

>  <B_rotN> (0080-0054)
1

>  <N_O> (0080-0054)
7

>  <logP> (0080-0054)
3.69

>  <logD> (0080-0054)
2.24

>  <logSw> (0080-0054)
-5.71

>  <PSA> (0080-0054)
98.42

>  <Chiral_centers> (0080-0054)
0

>  <Name> (0080-0054)
(10Z)-8,8-dimethyl-10-[(4-nitrophenyl)methylidene]-2H,8H,9H,10H-pyrano[2,3-h]chromene-2,9-dione

>  <Smile> (0080-0054)
CC1(C(C(=Cc2ccc([N+]([O-])=O)cc2)c2c3c(ccc2O1)C=CC(O3)=O)=O)C

>  <Collection> (0080-0054)
DC

>  <InChI Key> (0080-0054)
VZDXSDBCXCYQDK-PTNGSMBKSA-N

>  <PERCENTSP3> (0080-0054)
14.3

$$$$

  -ISIS-  -- StrEd -- 

 20 22  0  0  0  0  0  0  0  0999 V2000
    0.1665   -0.4624    0.0000 C   0  0  1  0  0  0  0  0  0  0  0  0
   -0.3207    0.3729    0.0000 C   0  0  2  0  0  0  0  0  0  0  0  0
   -0.1268   -1.3972    0.0000 O   0  0  0  0  0  0  0  0  0  0  0  0
    0.1665    1.2283    0.0000 C   0  0  2  0  0  0  0  0  0  0  0  0
    0.6638   -1.9491    0.0000 C   0  0  0  0  0  0  0  0  0  0  0  0
    1.1411   -0.4425    0.0000 C   0  0  2  0  0  0  0  0  0  0  0  0
    1.4543   -1.3723    0.0000 C   0  0  2  0  0  0  0  0  0  0  0  0
   -1.2903    0.3729    0.0000 C   0  0  1  0  0  0  0  0  0  0  0  0
   -0.3207    2.0636    0.0000 C   0  0  0  0  0  0  0  0  0  0  0  0
   -1.7677    1.2283    0.0000 C   0  0  0  0  0  0  0  0  0  0  0  0
   -1.2903    2.0437    0.0000 C   0  0  0  0  0  0  0  0  0  0  0  0
    1.1411    1.2283    0.0000 C   0  0  0  0  0  0  0  0  0  0  0  0
    1.6433    0.3729    0.0000 C   0  0  0  0  0  0  0  0  0  0  0  0
    0.6886   -2.9237    0.0000 O   0  0  0  0  0  0  0  0  0  0  0  0
    0.1665    2.9237    0.0000 O   0  0  0  0  0  0  0  0  0  0  0  0
   -2.3793    0.0348    0.0000 O   0  0  0  0  0  0  0  0  0  0  0  0
    0.8825    2.2376    0.0000 C   0  0  0  0  0  0  0  0  0  0  0  0
    2.3793   -1.6856    0.0000 C   0  0  0  0  0  0  0  0  0  0  0  0
   -1.4693   -0.7309    0.0000 C   0  0  0  0  0  0  0  0  0  0  0  0
   -0.8628   -0.4425    0.0000 H   0  0  0  0  0  0  0  0  0  0  0  0
  2  1  1  0  0  0  0
  1  3  1  6  0  0  0
  4  2  1  0  0  0  0
  5  3  1  0  0  0  0
  6  1  1  0  0  0  0
  6  7  1  1  0  0  0
  8  2  1  0  0  0  0
  9  4  1  0  0  0  0
 10  8  1  0  0  0  0
 11 10  2  0  0  0  0
 12 13  1  0  0  0  0
 13  6  1  0  0  0  0
 14  5  2  0  0  0  0
 15  9  2  0  0  0  0
  8 16  1  6  0  0  0
  4 17  1  1  0  0  0
  7 18  1  6  0  0  0
  8 19  1  1  0  0  0
  2 20  1  6  0  0  0
  7  5  1  0  0  0  0
 12  4  1  0  0  0  0
 11  9  1  0  0  0  0
M  END
>  <IDNUMBER> (0115-0011)
0115-0011

>  <available> (0115-0011)
4673

>  <H_acceptor> (0115-0011)
4

>  <H_donor> (0115-0011)
1

>  <B_rotN> (0115-0011)
1

>  <N_O> (0115-0011)
4

>  <logP> (0115-0011)
1.2

>  <logD> (0115-0011)
0.64

>  <logSw> (0115-0011)
-1.3

>  <PSA> (0115-0011)
63.6

>  <Chiral_centers> (0115-0011)
6

>  <Name> (0115-0011)
9-hydroxy-3,5a,9-trimethyl-2H,3H,3aH,4H,5H,5aH,6H,9H,9aH,9bH-naphtho[1,2-b]furan-2,6-dione

>  <Smile> (0115-0011)
CC1(C2C3C(C(C(O3)=O)C)CCC2(C(C=C1)=O)C)O

>  <Collection> (0115-0011)
DC

>  <InChI Key> (0115-0011)
NGPDZEACIWDCKX-WUDKWMPASA-N

>  <PERCENTSP3> (0115-0011)
73.3

$$$$

  -ISIS-  -- StrEd -- 

 31 33  0  0  0  0  0  0  0  0999 V2000
   -0.9866    1.6533    0.0000 C   0  0  0  0  0  0  0  0  0  0  0  0
   -0.9866    0.6622    0.0000 C   0  0  2  0  0  0  0  0  0  0  0  0
   -0.1140    2.1488    0.0000 C   0  0  0  0  0  0  0  0  0  0  0  0
   -1.8199    0.1886    0.0000 C   0  0  2  0  0  0  0  0  0  0  0  0
   -1.8199    2.1488    0.0000 C   0  0  0  0  0  0  0  0  0  0  0  0
   -2.6924    0.6842    0.0000 C   0  0  0  0  0  0  0  0  0  0  0  0
   -2.6707    1.6533    0.0000 O   0  0  0  0  0  0  0  0  0  0  0  0
    0.3157   -0.1491    0.0000 O   0  0  0  0  0  0  0  0  0  0  0  0
   -1.8945   -1.0304    0.0000 O   0  0  0  0  0  0  0  0  0  0  0  0
    0.7148    1.6533    0.0000 O   0  0  0  0  0  0  0  0  0  0  0  0
    1.0832   -0.7280    0.0000 C   0  0  0  0  0  0  0  0  0  0  0  0
   -1.4296   -1.8857    0.0000 C   0  0  0  0  0  0  0  0  0  0  0  0
    1.5700    2.1488    0.0000 C   0  0  0  0  0  0  0  0  0  0  0  0
   -0.1140    3.1181    0.0000 C   0  0  0  0  0  0  0  0  0  0  0  0
    0.7367    3.5872    0.0000 C   0  0  0  0  0  0  0  0  0  0  0  0
    1.9997   -0.4298    0.0000 C   0  0  0  0  0  0  0  0  0  0  0  0
   -1.9910   -2.7364    0.0000 C   0  0  0  0  0  0  0  0  0  0  0  0
    1.5918    3.1181    0.0000 C   0  0  0  0  0  0  0  0  0  0  0  0
   -1.8199    3.1181    0.0000 C   0  0  0  0  0  0  0  0  0  0  0  0
   -0.6623   -1.9910    0.0000 O   0  0  0  0  0  0  0  0  0  0  0  0
    0.9165   -1.7454    0.0000 O   0  0  0  0  0  0  0  0  0  0  0  0
    2.4426    1.6533    0.0000 O   0  0  0  0  0  0  0  0  0  0  0  0
   -0.9866    3.6090    0.0000 C   0  0  0  0  0  0  0  0  0  0  0  0
    2.7495   -1.0087    0.0000 C   0  0  0  0  0  0  0  0  0  0  0  0
   -2.9863   -2.6531    0.0000 C   0  0  0  0  0  0  0  0  0  0  0  0
   -3.6618    0.7148    0.0000 C   0  0  0  0  0  0  0  0  0  0  0  0
   -3.0302   -0.2500    0.0000 C   0  0  0  0  0  0  0  0  0  0  0  0
   -1.5787   -3.6090    0.0000 C   0  0  0  0  0  0  0  0  0  0  0  0
    2.1269    0.5876    0.0000 C   0  0  0  0  0  0  0  0  0  0  0  0
    3.6618   -0.6314    0.0000 C   0  0  0  0  0  0  0  0  0  0  0  0
   -3.3898   -1.7671    0.0000 C   0  0  0  0  0  0  0  0  0  0  0  0
  2  1  1  0  0  0  0
  3  1  1  0  0  0  0
  4  2  1  0  0  0  0
  5  1  2  0  0  0  0
  6  7  1  0  0  0  0
  7  5  1  0  0  0  0
  2  8  1  1  0  0  0
  4  9  1  1  0  0  0
 10  3  1  0  0  0  0
 11  8  1  0  0  0  0
 12  9  1  0  0  0  0
 13 10  1  0  0  0  0
 14  3  2  0  0  0  0
 15 14  1  0  0  0  0
 16 11  1  0  0  0  0
 17 12  1  0  0  0  0
 18 15  2  0  0  0  0
 19  5  1  0  0  0  0
 20 12  2  0  0  0  0
 21 11  2  0  0  0  0
 22 13  2  0  0  0  0
 23 19  2  0  0  0  0
 24 16  2  0  0  0  0
 25 17  2  0  0  0  0
  6 26  1  0  0  0  0
 27  6  1  0  0  0  0
 28 17  1  0  0  0  0
 29 16  1  0  0  0  0
 30 24  1  0  0  0  0
 31 25  1  0  0  0  0
 23 14  1  0  0  0  0
  6  4  1  0  0  0  0
 13 18  1  0  0  0  0
M  END
>  <IDNUMBER> (0118-0244)
0118-0244

>  <available> (0118-0244)
23

>  <H_acceptor> (0118-0244)
7

>  <H_donor> (0118-0244)
0

>  <B_rotN> (0118-0244)
4

>  <N_O> (0118-0244)
7

>  <logP> (0118-0244)
3.98

>  <logD> (0118-0244)
4.09

>  <logSw> (0118-0244)
-5.2

>  <PSA> (0118-0244)
88.13

>  <Chiral_centers> (0118-0244)
2

>  <Name> (0118-0244)
8,8-dimethyl-10-{[(2E)-2-methylbut-2-enoyl]oxy}-2-oxo-2H,8H,9H,10H-pyrano[2,3-h]chromen-9-yl (2Z)-2-methylbut-2-enoate

>  <Smile> (0118-0244)
CC=C(C(OC1C(c2c(OC1(C)C)ccc1c2OC(C=C1)=O)OC(C(=CC)C)=O)=O)C

>  <Collection> (0118-0244)
DC

>  <InChI Key> (0118-0244)
PNTWXEIQXBRCPS-BYAWRSLLSA-N

>  <PERCENTSP3> (0118-0244)
37.5

$$$$

  -ISIS-  -- StrEd -- 

 21 23  0  0  0  0  0  0  0  0999 V2000
   -0.3853   -0.7415    0.0000 C   0  0  0  0  0  0  0  0  0  0  0  0
   -0.3853    0.2711    0.0000 C   0  0  0  0  0  0  0  0  0  0  0  0
    0.5063    0.7774    0.0000 C   0  0  0  0  0  0  0  0  0  0  0  0
   -1.2367   -1.2255    0.0000 C   0  0  0  0  0  0  0  0  0  0  0  0
   -1.2367    0.7774    0.0000 C   0  0  0  0  0  0  0  0  0  0  0  0
   -2.1283   -0.7191    0.0000 C   0  0  0  0  0  0  0  0  0  0  0  0
   -2.1060    0.2711    0.0000 O   0  0  0  0  0  0  0  0  0  0  0  0
    1.3533    0.2711    0.0000 O   0  0  0  0  0  0  0  0  0  0  0  0
    2.2270    0.7774    0.0000 C   0  0  0  0  0  0  0  0  0  0  0  0
    0.5063    1.7678    0.0000 C   0  0  0  0  0  0  0  0  0  0  0  0
    1.3756    2.2472    0.0000 C   0  0  0  0  0  0  0  0  0  0  0  0
    2.2494    1.7678    0.0000 C   0  0  0  0  0  0  0  0  0  0  0  0
    0.4616   -1.2658    0.0000 C   0  0  0  0  0  0  0  0  0  0  0  0
   -1.2367    1.7678    0.0000 C   0  0  0  0  0  0  0  0  0  0  0  0
    3.1186    0.2711    0.0000 O   0  0  0  0  0  0  0  0  0  0  0  0
   -1.2457   -2.2023    0.0000 Cl  0  0  0  0  0  0  0  0  0  0  0  0
   -0.3853    2.2695    0.0000 C   0  0  0  0  0  0  0  0  0  0  0  0
    1.3533   -0.8266    0.0000 O   0  0  0  0  0  0  0  0  0  0  0  0
   -3.1186   -0.6878    0.0000 C   0  0  0  0  0  0  0  0  0  0  0  0
   -2.4734   -1.6736    0.0000 C   0  0  0  0  0  0  0  0  0  0  0  0
    0.4616   -2.2695    0.0000 H   0  0  0  0  0  0  0  0  0  0  0  0
  2  1  1  0  0  0  0
  3  2  1  0  0  0  0
  4  1  2  0  0  0  0
  5  2  2  0  0  0  0
  6  4  1  0  0  0  0
  7  6  1  0  0  0  0
  8  3  1  0  0  0  0
  9  8  1  0  0  0  0
 10  3  2  0  0  0  0
 11 10  1  0  0  0  0
 12 11  2  0  0  0  0
 13  1  1  0  0  0  0
 14  5  1  0  0  0  0
 15  9  2  0  0  0  0
 16  4  1  0  0  0  0
 17 14  2  0  0  0  0
 18 13  2  0  0  0  0
  6 19  1  0  0  0  0
 20  6  1  0  0  0  0
 21 13  1  0  0  0  0
  7  5  1  0  0  0  0
 17 10  1  0  0  0  0
  9 12  1  0  0  0  0
M  END
>  <IDNUMBER> (0118-0250)
0118-0250

>  <available> (0118-0250)
7

>  <H_acceptor> (0118-0250)
5

>  <H_donor> (0118-0250)
0

>  <B_rotN> (0118-0250)
1

>  <N_O> (0118-0250)
4

>  <logP> (0118-0250)
2.56

>  <logD> (0118-0250)
2.85

>  <logSw> (0118-0250)
-5.61

>  <PSA> (0118-0250)
52.6

>  <Chiral_centers> (0118-0250)
0

>  <Name> (0118-0250)
9-chloro-8,8-dimethyl-2-oxo-2H,8H-pyrano[2,3-f]chromene-10-carbaldehyde

>  <Smile> (0118-0250)
CC1(C(=C(C=O)c2c3c(ccc2O1)C=CC(O3)=O)Cl)C

>  <Collection> (0118-0250)
DC

>  <InChI Key> (0118-0250)
JUIGIRDNHARNHG-UHFFFAOYSA-N

>  <PERCENTSP3> (0118-0250)
20

$$$$

  -ISIS-  -- StrEd -- 

 35 40  0  0  0  0  0  0  0  0999 V2000
    2.3723    2.0562    0.0000 C   0  0  0  0  0  0  0  0  0  0  0  0
   -0.2812   -1.9367    0.0000 C   0  0  0  0  0  0  0  0  0  0  0  0
    1.9641    1.1700    0.0000 C   0  0  0  0  0  0  0  0  0  0  0  0
   -0.7342   -1.0507    0.0000 C   0  0  0  0  0  0  0  0  0  0  0  0
    2.7060    0.5028    0.0000 C   0  0  0  0  0  0  0  0  0  0  0  0
   -1.7152   -1.2197    0.0000 C   0  0  0  0  0  0  0  0  0  0  0  0
   -0.9733   -2.6537    0.0000 O   0  0  0  0  0  0  0  0  0  0  0  0
    3.3533    1.9814    0.0000 O   0  0  0  0  0  0  0  0  0  0  0  0
    3.5671    1.0006    0.0000 C   0  0  0  0  0  0  0  0  0  0  0  0
   -1.8594   -2.2005    0.0000 C   0  0  0  0  0  0  0  0  0  0  0  0
    4.4286   -0.5278    0.0000 C   0  0  0  0  0  0  0  0  0  0  0  0
   -3.5771   -1.9618    0.0000 C   0  0  0  0  0  0  0  0  0  0  0  0
    3.5671   -1.0307    0.0000 C   0  0  0  0  0  0  0  0  0  0  0  0
   -3.4375   -0.9806    0.0000 C   0  0  0  0  0  0  0  0  0  0  0  0
    2.7060   -0.5278    0.0000 C   0  0  0  0  0  0  0  0  0  0  0  0
   -2.5019   -0.5973    0.0000 C   0  0  0  0  0  0  0  0  0  0  0  0
   -2.7906   -2.5840    0.0000 C   0  0  0  0  0  0  0  0  0  0  0  0
    4.4286    0.5028    0.0000 C   0  0  0  0  0  0  0  0  0  0  0  0
   -4.2244   -0.3485    0.0000 C   0  0  0  0  0  0  0  0  0  0  0  0
    3.5671   -2.0315    0.0000 C   0  0  0  0  0  0  0  0  0  0  0  0
    0.6996   -2.0661    0.0000 O   0  0  0  0  0  0  0  0  0  0  0  0
    1.8695    2.9026    0.0000 O   0  0  0  0  0  0  0  0  0  0  0  0
   -4.0800    0.6324    0.0000 C   0  0  0  0  0  0  0  0  0  0  0  0
    2.7060   -2.5341    0.0000 C   0  0  0  0  0  0  0  0  0  0  0  0
    0.6050    0.0448    0.0000 N   0  0  0  0  0  0  0  0  0  0  0  0
   -0.3757   -0.1195    0.0000 C   0  0  0  0  0  0  0  0  0  0  0  0
    0.9634    0.9806    0.0000 C   0  0  0  0  0  0  0  0  0  0  0  0
   -4.5231   -2.3451    0.0000 C   0  0  0  0  0  0  0  0  0  0  0  0
    5.3097   -1.0307    0.0000 C   0  0  0  0  0  0  0  0  0  0  0  0
   -3.7115   -2.9026    0.0000 C   0  0  0  0  0  0  0  0  0  0  0  0
    5.2651    0.0348    0.0000 C   0  0  0  0  0  0  0  0  0  0  0  0
   -5.1702   -0.7170    0.0000 C   0  0  0  0  0  0  0  0  0  0  0  0
    4.4386   -2.5243    0.0000 C   0  0  0  0  0  0  0  0  0  0  0  0
    5.3097   -2.0213    0.0000 C   0  0  0  0  0  0  0  0  0  0  0  0
   -5.3097   -1.7077    0.0000 C   0  0  0  0  0  0  0  0  0  0  0  0
  2  4  1  0  0  0  0
  3  1  1  0  0  0  0
  4 26  1  0  0  0  0
  5  3  1  0  0  0  0
  6  4  1  0  0  0  0
  7  2  1  0  0  0  0
  8  1  1  0  0  0  0
  9  8  1  0  0  0  0
 10  6  1  0  0  0  0
 11 18  1  0  0  0  0
 14 12  1  0  0  0  0
 13 15  1  0  0  0  0
 14 16  1  0  0  0  0
 15  5  1  0  0  0  0
 16  6  1  0  0  0  0
 17 10  1  0  0  0  0
 18  9  1  0  0  0  0
 19 14  1  0  0  0  0
 20 13  1  0  0  0  0
 21  2  2  0  0  0  0
 22  1  2  0  0  0  0
 23 19  2  0  0  0  0
 24 20  2  0  0  0  0
 25 27  1  0  0  0  0
 26 25  1  0  0  0  0
  3 27  1  0  0  0  0
 28 12  1  0  0  0  0
 29 11  1  0  0  0  0
 12 30  1  0  0  0  0
 11 31  1  0  0  0  0
 32 19  1  0  0  0  0
 33 20  1  0  0  0  0
 34 29  1  0  0  0  0
 35 32  1  0  0  0  0
  5  9  1  0  0  0  0
 13 11  1  0  0  0  0
 33 34  1  0  0  0  0
 10  7  1  0  0  0  0
 12 17  1  0  0  0  0
 28 35  1  0  0  0  0
M  END
>  <IDNUMBER> (0407-0029)
0407-0029

>  <available> (0407-0029)
49

>  <H_acceptor> (0407-0029)
4

>  <H_donor> (0407-0029)
1

>  <B_rotN> (0407-0029)
4

>  <N_O> (0407-0029)
5

>  <logP> (0407-0029)
4.165

>  <logD> (0407-0029)
3.284

>  <logSw> (0407-0029)
-3.6926

>  <PSA> (0407-0029)
64.63

>  <Chiral_centers> (0407-0029)
10

>  <Name> (0407-0029)
3-{[({8a-methyl-5-methylidene-2-oxo-dodecahydronaphtho[2,3-b]furan-3-yl}methyl)amino]methyl}-8a-methyl-5-methylidene-dodecahydronaphtho[2,3-b]furan-2-one

>  <Smile> (0407-0029)
C1(C(C2CC3C(=C)CCCC3(CC2O1)C)CNCC1C(OC2C1CC1C(CCCC1=C)(C)C2)=O)=O

>  <Collection> (0407-0029)
DC

>  <InChI Key> (0407-0029)
XBMIBTWVMZWNPS-UHFFFAOYSA-N

>  <PERCENTSP3> (0407-0029)
80

$$$$

  -ISIS-  -- StrEd -- 

 36 39  0  0  0  0  0  0  0  0999 V2000
   -0.7113    0.2001    0.0000 C   0  0  0  0  0  0  0  0  0  0  0  0
   -1.5676   -1.2782    0.0000 C   0  0  0  0  0  0  0  0  0  0  0  0
   -0.7113   -0.7914    0.0000 C   0  0  0  0  0  0  0  0  0  0  0  0
   -1.5553    0.6746    0.0000 C   0  0  0  0  0  0  0  0  0  0  0  0
   -2.4113   -0.7914    0.0000 C   0  0  0  0  0  0  0  0  0  0  0  0
   -2.4113    0.2001    0.0000 O   0  0  0  0  0  0  0  0  0  0  0  0
   -1.5676   -2.2512    0.0000 O   0  0  0  0  0  0  0  0  0  0  0  0
    0.1325    0.6746    0.0000 C   0  0  0  0  0  0  0  0  0  0  0  0
   -2.4113   -2.7563    0.0000 C   0  0  0  0  0  0  0  0  0  0  0  0
    0.1325   -1.2782    0.0000 N   0  0  0  0  0  0  0  0  0  0  0  0
    2.6885    2.1404    0.0000 C   0  0  0  0  0  0  0  0  0  0  0  0
    2.6579    3.1135    0.0000 N   0  0  0  0  0  0  0  0  0  0  0  0
    1.8201    1.6660    0.0000 C   0  0  0  0  0  0  0  0  0  0  0  0
    0.9763    2.1404    0.0000 C   0  0  0  0  0  0  0  0  0  0  0  0
    0.1325    1.6660    0.0000 C   0  0  0  0  0  0  0  0  0  0  0  0
   -1.5553    1.6660    0.0000 C   0  0  0  0  0  0  0  0  0  0  0  0
   -3.2367   -2.2205    0.0000 O   0  0  0  0  0  0  0  0  0  0  0  0
    3.5941    1.5614    0.0000 O   0  0  0  0  0  0  0  0  0  0  0  0
   -0.7113    2.1404    0.0000 C   0  0  0  0  0  0  0  0  0  0  0  0
   -2.4421   -3.7294    0.0000 C   0  0  0  0  0  0  0  0  0  0  0  0
    1.2290    0.1877    0.0000 O   0  0  0  0  0  0  0  0  0  0  0  0
   -3.2983   -1.3336    0.0000 C   0  0  0  0  0  0  0  0  0  0  0  0
   -3.5941   -0.3602    0.0000 C   0  0  0  0  0  0  0  0  0  0  0  0
    0.9763   -0.8037    0.0000 C   0  0  0  0  0  0  0  0  0  0  0  0
    0.1325   -2.2697    0.0000 C   0  0  0  0  0  0  0  0  0  0  0  0
    1.8201    3.5693    0.0000 C   0  0  0  0  0  0  0  0  0  0  0  0
    3.5015    3.6433    0.0000 C   0  0  0  0  0  0  0  0  0  0  0  0
   -1.6106   -4.2468    0.0000 C   0  0  0  0  0  0  0  0  0  0  0  0
   -3.5323   -4.3823    0.0000 C   0  0  0  0  0  0  0  0  0  0  0  0
    1.8325   -1.2782    0.0000 C   0  0  0  0  0  0  0  0  0  0  0  0
    3.4584    4.6350    0.0000 C   0  0  0  0  0  0  0  0  0  0  0  0
    0.9885   -2.7687    0.0000 C   0  0  0  0  0  0  0  0  0  0  0  0
    1.7709    4.5609    0.0000 C   0  0  0  0  0  0  0  0  0  0  0  0
   -1.6414   -5.0784    0.0000 C   0  0  0  0  0  0  0  0  0  0  0  0
    2.6025    5.0784    0.0000 C   0  0  0  0  0  0  0  0  0  0  0  0
    1.8447   -2.2512    0.0000 C   0  0  0  0  0  0  0  0  0  0  0  0
  2  3  1  0  0  0  0
  3  1  1  0  0  0  0
  4  1  2  0  0  0  0
  5  6  1  0  0  0  0
  6  4  1  0  0  0  0
  2  7  1  0  0  0  0
  8  1  1  0  0  0  0
  9  7  1  0  0  0  0
  3 10  1  0  0  0  0
 11 13  1  0  0  0  0
 12 11  1  0  0  0  0
 13 14  2  0  0  0  0
 14 15  1  0  0  0  0
 15  8  2  0  0  0  0
 16  4  1  0  0  0  0
 17  9  2  0  0  0  0
 18 11  2  0  0  0  0
 19 15  1  0  0  0  0
 20  9  1  0  0  0  0
 21  8  1  0  0  0  0
  5 22  1  0  0  0  0
 23  5  1  0  0  0  0
 24 10  1  0  0  0  0
 25 10  1  0  0  0  0
 26 12  1  0  0  0  0
 27 12  1  0  0  0  0
 28 20  1  0  0  0  0
 29 20  1  0  0  0  0
 30 24  1  0  0  0  0
 31 27  1  0  0  0  0
 32 25  1  0  0  0  0
 33 26  1  0  0  0  0
 34 28  1  0  0  0  0
 35 31  1  0  0  0  0
 36 32  1  0  0  0  0
 16 19  2  0  0  0  0
  2  5  1  0  0  0  0
 30 36  1  0  0  0  0
 33 35  1  0  0  0  0
M  END
>  <IDNUMBER> (0407-0066)
0407-0066

>  <available> (0407-0066)
528

>  <H_acceptor> (0407-0066)
6

>  <H_donor> (0407-0066)
1

>  <B_rotN> (0407-0066)
9

>  <N_O> (0407-0066)
7

>  <logP> (0407-0066)
5.11

>  <logD> (0407-0066)
-0.11

>  <logSw> (0407-0066)
-3.55

>  <PSA> (0407-0066)
79.31

>  <Chiral_centers> (0407-0066)
3

>  <Name> (0407-0066)
5-hydroxy-2,2-dimethyl-6-[(1E)-3-oxo-3-(piperidin-1-yl)prop-1-en-1-yl]-4-(piperidin-1-yl)-3,4-dihydro-2H-1-benzopyran-3-yl 2-methylbutanoate

>  <Smile> (0407-0066)
C1CCN(C2c3c(c(C=CC(N4CCCCC4)=O)ccc3OC(C2OC(=O)C(CC)C)(C)C)O)CC1

>  <Collection> (0407-0066)
DC

>  <InChI Key> (0407-0066)
DTYTUVZVFGDVES-FYWRMAATSA-N

>  <PERCENTSP3> (0407-0066)
65.5

$$$$

  -ISIS-  -- StrEd -- 

 15 15  0  0  0  0  0  0  0  0999 V2000
   -0.4352    1.0133    0.0000 C   0  0  0  0  0  0  0  0  0  0  0  0
    0.4308   -0.5077    0.0000 C   0  0  0  0  0  0  0  0  0  0  0  0
   -0.4352    0.0022    0.0000 C   0  0  0  0  0  0  0  0  0  0  0  0
    0.4308    1.4968    0.0000 C   0  0  0  0  0  0  0  0  0  0  0  0
    1.2968    1.0133    0.0000 C   0  0  0  0  0  0  0  0  0  0  0  0
    1.2968    0.0022    0.0000 C   0  0  0  0  0  0  0  0  0  0  0  0
    0.4308   -1.4968    0.0000 C   0  0  0  0  0  0  0  0  0  0  0  0
    1.2968   -2.0024    0.0000 C   0  0  0  0  0  0  0  0  0  0  0  0
    0.4308    2.5123    0.0000 O   0  0  0  0  0  0  0  0  0  0  0  0
   -1.3011   -0.5077    0.0000 O   0  0  0  0  0  0  0  0  0  0  0  0
    2.1628    1.5188    0.0000 O   0  0  0  0  0  0  0  0  0  0  0  0
    1.2968   -2.9959    0.0000 C   0  0  0  0  0  0  0  0  0  0  0  0
    2.1628    2.5123    0.0000 C   0  0  0  0  0  0  0  0  0  0  0  0
    1.2968    2.9959    0.0000 C   0  0  0  0  0  0  0  0  0  0  0  0
   -2.1628   -0.0198    0.0000 C   0  0  0  0  0  0  0  0  0  0  0  0
  2  3  2  0  0  0  0
  3  1  1  0  0  0  0
  4  1  2  0  0  0  0
  5  4  1  0  0  0  0
  6  5  2  0  0  0  0
  7  2  1  0  0  0  0
  8  7  2  0  0  0  0
  9  4  1  0  0  0  0
 10  3  1  0  0  0  0
 11  5  1  0  0  0  0
 12  8  1  0  0  0  0
 13 11  1  0  0  0  0
 14  9  1  0  0  0  0
 15 10  1  0  0  0  0
  6  2  1  0  0  0  0
M  END
>  <IDNUMBER> (0407-0104)
0407-0104

>  <available> (0407-0104)
90

>  <H_acceptor> (0407-0104)
3

>  <H_donor> (0407-0104)
0

>  <B_rotN> (0407-0104)
4

>  <N_O> (0407-0104)
3

>  <logP> (0407-0104)
2.54

>  <logD> (0407-0104)
3.21

>  <logSw> (0407-0104)
-3.31

>  <PSA> (0407-0104)
27.69

>  <Chiral_centers> (0407-0104)
0

>  <Name> (0407-0104)
1,2,4-trimethoxy-5-[(1E)-prop-1-en-1-yl]benzene

>  <Smile> (0407-0104)
COc1cc(c(cc1C=CC)OC)OC

>  <Collection> (0407-0104)
DC

>  <InChI Key> (0407-0104)
RKFAZBXYICVSKP-AATRIKPKSA-N

>  <PERCENTSP3> (0407-0104)
33.3

$$$$

  -ISIS-  -- StrEd -- 

 42 47  0  0  0  0  0  0  0  0999 V2000
    2.8609    1.0795    0.0000 C   0  0  0  0  0  0  0  0  0  0  0  0
    2.8609    0.1462    0.0000 C   0  0  0  0  0  0  0  0  0  0  0  0
    0.5070   -0.2835    0.0000 C   0  0  0  0  0  0  0  0  0  0  0  0
    2.0876   -0.2835    0.0000 C   0  0  1  0  0  0  0  0  0  0  0  0
   -1.8528   -2.9239    0.0000 C   0  0  0  0  0  0  0  0  0  0  0  0
    1.2513    0.1462    0.0000 C   0  0  2  0  0  0  0  0  0  0  0  0
    0.5070   -1.2170    0.0000 C   0  0  0  0  0  0  0  0  0  0  0  0
   -2.6259   -3.8861    0.0000 C   0  0  0  0  0  0  0  0  0  0  0  0
   -4.1095   -3.8861    0.0000 C   0  0  0  0  0  0  0  0  0  0  0  0
    3.6685    1.2858    0.0000 C   0  0  0  0  0  0  0  0  0  0  0  0
   -2.6259   -1.9158    0.0000 O   0  0  0  0  0  0  0  0  0  0  0  0
    3.9433    2.2309    0.0000 C   0  0  0  0  0  0  0  0  0  0  0  0
    2.0876    1.5034    0.0000 C   0  0  0  0  0  0  0  0  0  0  0  0
   -4.8826   -2.9239    0.0000 C   0  0  0  0  0  0  0  0  0  0  0  0
    1.2513    1.0795    0.0000 C   0  0  1  0  0  0  0  0  0  0  0  0
    3.3248    2.9639    0.0000 C   0  0  0  0  0  0  0  0  0  0  0  0
   -4.1095   -1.9158    0.0000 C   0  0  0  0  0  0  0  0  0  0  0  0
    3.8631    3.8289    0.0000 C   0  0  0  0  0  0  0  0  0  0  0  0
    3.6685   -0.1173    0.0000 C   0  0  0  0  0  0  0  0  0  0  0  0
   -0.3407   -1.6009    0.0000 C   0  0  0  0  0  0  0  0  0  0  0  0
   -0.3407    0.1462    0.0000 C   0  0  0  0  0  0  0  0  0  0  0  0
    2.0876   -1.2170    0.0000 C   0  0  0  0  0  0  0  0  0  0  0  0
   -1.8528   -1.6694    0.0000 O   0  0  0  0  0  0  0  0  0  0  0  0
    4.8369    3.5825    0.0000 O   0  0  0  0  0  0  0  0  0  0  0  0
    4.2183    0.5986    0.0000 C   0  0  0  0  0  0  0  0  0  0  0  0
    1.2513   -1.6009    0.0000 C   0  0  0  0  0  0  0  0  0  0  0  0
    4.8826    2.5916    0.0000 C   0  0  0  0  0  0  0  0  0  0  0  0
    0.5070    0.6959    0.0000 C   0  0  0  0  0  0  0  0  0  0  0  0
   -1.0453   -1.2170    0.0000 C   0  0  0  0  0  0  0  0  0  0  0  0
    3.4908    4.7909    0.0000 O   0  0  0  0  0  0  0  0  0  0  0  0
    2.8722   -0.8046    0.0000 O   0  0  0  0  0  0  0  0  0  0  0  0
   -2.6259   -4.7795    0.0000 O   0  0  0  0  0  0  0  0  0  0  0  0
    0.5070   -2.3568    0.0000 O   0  0  0  0  0  0  0  0  0  0  0  0
   -0.2893    1.1084    0.0000 O   0  0  0  0  0  0  0  0  0  0  0  0
   -4.1095   -4.7909    0.0000 O   0  0  0  0  0  0  0  0  0  0  0  0
   -4.8655   -1.7095    0.0000 O   0  0  0  0  0  0  0  0  0  0  0  0
    2.8722    2.0419    0.0000 C   0  0  0  0  0  0  0  0  0  0  0  0
    0.4382    1.5321    0.0000 O   0  0  0  0  0  0  0  0  0  0  0  0
   -1.0453   -0.2835    0.0000 C   0  0  0  0  0  0  0  0  0  0  0  0
   -4.0979   -0.8850    0.0000 C   0  0  0  0  0  0  0  0  0  0  0  0
    2.0876    0.6672    0.0000 H   0  0  0  0  0  0  0  0  0  0  0  0
    1.3089   -0.9420    0.0000 H   0  0  0  0  0  0  0  0  0  0  0  0
  2  1  1  0  0  0  0
  3  6  1  0  0  0  0
  4  2  1  0  0  0  0
  5 23  1  0  0  0  0
  6 15  1  0  0  0  0
  7  3  1  0  0  0  0
  8  5  1  0  0  0  0
  9  8  1  0  0  0  0
 10  1  1  0  0  0  0
 11  5  1  0  0  0  0
 10 12  1  0  0  0  0
 13  1  1  0  0  0  0
 14 17  1  0  0  0  0
 15 13  1  0  0  0  0
 16 12  2  0  0  0  0
 17 11  1  0  0  0  0
 18 16  1  0  0  0  0
 19  2  1  0  0  0  0
 20  7  1  0  0  0  0
 21  3  1  0  0  0  0
 22  4  1  0  0  0  0
 29 23  1  0  0  0  0
 24 27  1  0  0  0  0
 25 10  1  0  0  0  0
 26 22  1  0  0  0  0
 27 12  1  0  0  0  0
  3 28  1  0  0  0  0
 29 39  1  0  0  0  0
 30 18  2  0  0  0  0
  2 31  1  0  0  0  0
  8 32  1  0  0  0  0
  7 33  1  0  0  0  0
 34 28  2  0  0  0  0
  9 35  1  0  0  0  0
 14 36  1  0  0  0  0
  1 37  1  0  0  0  0
 15 38  1  6  0  0  0
 39 21  1  0  0  0  0
 17 40  1  0  0  0  0
  4 41  1  1  0  0  0
  6 42  1  6  0  0  0
 19 25  1  0  0  0  0
  4  6  1  0  0  0  0
 24 18  1  0  0  0  0
  7 26  1  0  0  0  0
 20 29  1  0  0  0  0
 14  9  1  0  0  0  0
M  END
>  <IDNUMBER> (0449-0054)
0449-0054

>  <available> (0449-0054)
76

>  <H_acceptor> (0449-0054)
11

>  <H_donor> (0449-0054)
6

>  <B_rotN> (0449-0054)
10

>  <N_O> (0449-0054)
11

>  <logP> (0449-0054)
-0.8

>  <logD> (0449-0054)
-1.85

>  <logSw> (0449-0054)
-2.12

>  <PSA> (0449-0054)
183.21

>  <Chiral_centers> (0449-0054)
14

>  <Name> (0449-0054)
3a,5a,10-trihydroxy-11a-methyl-1-(5-oxo-2,5-dihydrofuran-3-yl)-7-[(3,4,5-trihydroxy-6-methyloxan-2-yl)oxy]-hexadecahydro-1H-cyclopenta[a]phenanthrene-9a-carbaldehyde

>  <Smile> (0449-0054)
CC1OC(OC2CC3(C(C4C(C5(C(C)(CC4O)C(C4=CC(=O)OC4)CC5)O)CC3)(C=O)CC2)O)C(C(O)C1O)O

>  <Collection> (0449-0054)
DC

>  <InChI Key> (0449-0054)
AZOXLPPOBHVORY-UKMPCWKWSA-N

>  <PERCENTSP3> (0449-0054)
86.2

$$$$

  -ISIS-  -- StrEd -- 

 58 68  0  0  0  0  0  0  0  0999 V2000
   -1.5136   -3.3925    0.0000 N   0  3  0  0  0  0  0  0  0  0  0  0
   -3.7422   -1.7883    0.0000 C   0  0  0  0  0  0  0  0  0  0  0  0
   -3.7422   -2.6870    0.0000 C   0  0  0  0  0  0  0  0  0  0  0  0
   -4.4790   -3.1115    0.0000 N   0  0  0  0  0  0  0  0  0  0  0  0
   -1.4948   -1.8196    0.0000 C   0  0  0  0  0  0  0  0  0  0  0  0
   -2.3190   -3.8607    0.0000 C   0  0  0  0  0  0  0  0  0  0  0  0
   -1.9754   -2.6123    0.0000 C   0  0  0  0  0  0  0  0  0  0  0  0
   -0.7460   -3.8607    0.0000 C   0  0  1  0  0  0  0  0  0  0  0  0
    4.7349    0.7712    0.0000 C   0  0  0  0  0  0  0  0  0  0  0  0
    2.3065    0.3091    0.0000 C   0  0  0  0  0  0  0  0  0  0  0  0
    4.7349    1.7011    0.0000 C   0  0  0  0  0  0  0  0  0  0  0  0
   -3.1178   -2.6123    0.0000 C   0  0  0  0  0  0  0  0  0  0  0  0
   -1.5136   -5.2341    0.0000 C   0  0  0  0  0  0  0  0  0  0  0  0
   -5.2590   -1.7883    0.0000 C   0  0  0  0  0  0  0  0  0  0  0  0
    2.3065   -0.6396    0.0000 C   0  0  0  0  0  0  0  0  0  0  0  0
   -5.2590   -2.6870    0.0000 C   0  0  0  0  0  0  0  0  0  0  0  0
    3.1305    0.7712    0.0000 C   0  0  2  0  0  0  0  0  0  0  0  0
    3.8983    0.3091    0.0000 C   0  0  1  0  0  0  0  0  0  0  0  0
   -2.5187   -1.3263    0.0000 C   0  0  0  0  0  0  0  0  0  0  0  0
   -0.7460   -4.7721    0.0000 C   0  0  0  0  0  0  0  0  0  0  0  0
    5.8897    2.8558    0.0000 C   0  0  0  0  0  0  0  0  0  0  0  0
    5.6023    1.9570    0.0000 C   0  0  0  0  0  0  0  0  0  0  0  0
   -2.3190   -4.7721    0.0000 C   0  0  0  0  0  0  0  0  0  0  0  0
    5.3027    3.5427    0.0000 C   0  0  0  0  0  0  0  0  0  0  0  0
   -0.9145   -2.3314    0.0000 C   0  0  0  0  0  0  0  0  0  0  0  0
    5.8458    4.3354    0.0000 C   0  0  0  0  0  0  0  0  0  0  0  0
    5.6023    0.5026    0.0000 C   0  0  0  0  0  0  0  0  0  0  0  0
    3.8983    2.1505    0.0000 C   0  0  0  0  0  0  0  0  0  0  0  0
   -0.1028   -2.0318    0.0000 C   0  0  0  0  0  0  0  0  0  0  0  0
    1.4701   -1.0704    0.0000 C   0  0  0  0  0  0  0  0  0  0  0  0
    1.4701    0.7712    0.0000 C   0  0  0  0  0  0  0  0  0  0  0  0
    3.1305    1.7011    0.0000 C   0  0  0  0  0  0  0  0  0  0  0  0
    6.7259    4.0794    0.0000 O   0  0  0  0  0  0  0  0  0  0  0  0
    6.1269    1.2330    0.0000 C   0  0  0  0  0  0  0  0  0  0  0  0
    3.8983   -0.6396    0.0000 C   0  0  0  0  0  0  0  0  0  0  0  0
    3.1305   -1.0704    0.0000 C   0  0  0  0  0  0  0  0  0  0  0  0
    6.7572    3.1554    0.0000 C   0  0  0  0  0  0  0  0  0  0  0  0
    2.3065    1.2330    0.0000 C   0  0  0  0  0  0  0  0  0  0  0  0
   -0.1028   -1.1014    0.0000 O   0  0  0  0  0  0  0  0  0  0  0  0
    0.7334   -0.6396    0.0000 C   0  0  0  0  0  0  0  0  0  0  0  0
    0.7209   -2.4936    0.0000 O   0  0  0  0  0  0  0  0  0  0  0  0
    5.5276    5.2341    0.0000 O   0  0  0  0  0  0  0  0  0  0  0  0
    0.0906   -3.3488    0.0000 O   0  0  0  0  0  0  0  0  0  0  0  0
    4.7222   -0.3524    0.0000 O   0  0  0  0  0  0  0  0  0  0  0  0
   -2.7747   -1.9693    0.0000 O   0  0  0  0  0  0  0  0  0  0  0  0
    2.3065   -1.8384    0.0000 O   0  0  0  0  0  0  0  0  0  0  0  0
    1.4701    1.7011    0.0000 O   0  0  0  0  0  0  0  0  0  0  0  0
   -4.4790   -4.0668    0.0000 C   0  0  0  0  0  0  0  0  0  0  0  0
    0.7334    0.3091    0.0000 C   0  0  0  0  0  0  0  0  0  0  0  0
    4.7222    2.8809    0.0000 C   0  0  0  0  0  0  0  0  0  0  0  0
   -6.0204   -1.3888    0.0000 C   0  0  0  0  0  0  0  0  0  0  0  0
   -6.0204   -3.1115    0.0000 C   0  0  0  0  0  0  0  0  0  0  0  0
    0.1218   -5.2092    0.0000 C   0  0  0  0  0  0  0  0  0  0  0  0
    0.9583   -4.6971    0.0000 C   0  0  0  0  0  0  0  0  0  0  0  0
   -6.7572   -1.7883    0.0000 C   0  0  0  0  0  0  0  0  0  0  0  0
   -6.7572   -2.6870    0.0000 C   0  0  0  0  0  0  0  0  0  0  0  0
    3.1305   -0.1153    0.0000 H   0  0  0  0  0  0  0  0  0  0  0  0
    3.8983    1.1329    0.0000 H   0  0  0  0  0  0  0  0  0  0  0  0
  3  2  1  0  0  0  0
  6  3  1  0  0  0  0
  4  3  1  0  0  0  0
  5  1  1  0  0  0  0
  6  1  1  0  0  0  0
  7  5  1  0  0  0  0
  8  1  1  0  0  0  0
  9 18  1  0  0  0  0
 10 31  1  0  0  0  0
 11 28  1  0  0  0  0
 12  7  1  0  0  0  0
 13 20  1  0  0  0  0
 14  2  1  0  0  0  0
 15 30  1  0  0  0  0
 16  4  1  0  0  0  0
 17 10  1  0  0  0  0
 18 17  1  0  0  0  0
 19  5  1  0  0  0  0
 20  8  1  0  0  0  0
 22 21  1  0  0  0  0
 22 11  1  0  0  0  0
 23  6  1  0  0  0  0
 24 21  2  0  0  0  0
 25  1  1  0  0  0  0
 26 24  1  0  0  0  0
 27  9  1  0  0  0  0
 28 32  1  0  0  0  0
 29 25  1  0  0  0  0
 30 40  1  0  0  0  0
 31 49  1  0  0  0  0
 32 17  1  0  0  0  0
 33 37  1  0  0  0  0
 34 27  1  0  0  0  0
 35 36  1  0  0  0  0
 36 15  1  0  0  0  0
 37 21  1  0  0  0  0
 10 38  1  0  0  0  0
 39 29  1  0  0  0  0
 40 39  1  0  0  0  0
 41 29  2  0  0  0  0
 42 26  2  0  0  0  0
  8 43  1  6  0  0  0
  9 44  1  0  0  0  0
 12 45  1  0  0  0  0
 15 46  1  0  0  0  0
 47 38  2  0  0  0  0
 48  4  1  0  0  0  0
 49 40  1  0  0  0  0
 11 50  1  0  0  0  0
 51 14  1  0  0  0  0
 52 16  1  0  0  0  0
 20 53  1  0  0  0  0
 54 53  1  0  0  0  0
 55 51  2  0  0  0  0
 56 52  2  0  0  0  0
 17 57  1  6  0  0  0
 18 58  1  1  0  0  0
 23 13  1  0  0  0  0
 19  2  1  0  0  0  0
  7 13  1  0  0  0  0
 12  2  1  0  0  0  0
 14 16  2  0  0  0  0
 10 15  1  0  0  0  0
 55 56  1  0  0  0  0
 18 35  1  0  0  0  0
  9 11  1  0  0  0  0
 34 22  1  0  0  0  0
 26 33  1  0  0  0  0
M  CHG  1   1   1
M  END
>  <IDNUMBER> (0449-0060)
0449-0060

>  <available> (0449-0060)
344

>  <Saltdata> (0449-0060)
Br-

>  <H_acceptor> (0449-0060)
9

>  <H_donor> (0449-0060)
4

>  <B_rotN> (0449-0060)
11

>  <N_O> (0449-0060)
11

>  <logP> (0449-0060)
1.88

>  <logD> (0449-0060)
5.12

>  <logSw> (0449-0060)
-8.8

>  <PSA> (0449-0060)
153.83

>  <Chiral_centers> (0449-0060)
17

>  <Name> (0449-0060)
Unable to name this structure

>  <Smile> (0449-0060)
c1cc2N(C3C4(C(C5C([N+]6(CC(OC7CC8(C(CC7)(C7C(C9(CCC(C9(CC7)C)C7=CC(OC7)=O)O)CC8)C=O)O)=O)C(O)C(C5CC36)CC)C4)O)c2cc1)C

>  <Collection> (0449-0060)
DC

>  <InChI Key> (0449-0060)
NZHZHIOPSSXRFD-LULDLOCMSA-N

>  <PERCENTSP3> (0449-0060)
75.6

$$$$

  -ISIS-  -- StrEd -- 

 42 47  0  0  0  0  0  0  0  0999 V2000
    2.8444    0.5351    0.0000 C   0  0  0  0  0  0  0  0  0  0  0  0
    0.5093    0.1007    0.0000 C   0  0  0  0  0  0  0  0  0  0  0  0
    2.8444    1.4369    0.0000 C   0  0  0  0  0  0  0  0  0  0  0  0
    0.5093   -0.8207    0.0000 C   0  0  0  0  0  0  0  0  0  0  0  0
    1.2876    0.5351    0.0000 C   0  0  2  0  0  0  0  0  0  0  0  0
    2.0530    0.1007    0.0000 C   0  0  1  0  0  0  0  0  0  0  0  0
    3.9861    2.6045    0.0000 C   0  0  0  0  0  0  0  0  0  0  0  0
    3.6878    1.6706    0.0000 C   0  0  0  0  0  0  0  0  0  0  0  0
   -1.8261   -2.7795    0.0000 C   0  0  0  0  0  0  0  0  0  0  0  0
   -2.6305   -1.7351    0.0000 O   0  0  0  0  0  0  0  0  0  0  0  0
   -2.6305   -3.7463    0.0000 C   0  0  0  0  0  0  0  0  0  0  0  0
    3.4088    3.3569    0.0000 C   0  0  0  0  0  0  0  0  0  0  0  0
   -4.9204   -2.7795    0.0000 C   0  0  0  0  0  0  0  0  0  0  0  0
    3.9861    4.2131    0.0000 C   0  0  0  0  0  0  0  0  0  0  0  0
   -4.1615   -3.7463    0.0000 C   0  0  0  0  0  0  0  0  0  0  0  0
   -4.1615   -1.7351    0.0000 C   0  0  0  0  0  0  0  0  0  0  0  0
    3.6878    0.2692    0.0000 C   0  0  0  0  0  0  0  0  0  0  0  0
    2.0530    1.8780    0.0000 C   0  0  0  0  0  0  0  0  0  0  0  0
   -0.2953   -1.2357    0.0000 C   0  0  0  0  0  0  0  0  0  0  0  0
   -0.2953    0.5351    0.0000 C   0  0  0  0  0  0  0  0  0  0  0  0
    1.2876    1.4369    0.0000 C   0  0  0  0  0  0  0  0  0  0  0  0
    4.9204    3.9149    0.0000 O   0  0  0  0  0  0  0  0  0  0  0  0
    4.2002    0.9893    0.0000 C   0  0  0  0  0  0  0  0  0  0  0  0
    2.0530   -0.8207    0.0000 C   0  0  0  0  0  0  0  0  0  0  0  0
    1.2876   -1.2357    0.0000 C   0  0  0  0  0  0  0  0  0  0  0  0
    4.9204    2.9354    0.0000 C   0  0  0  0  0  0  0  0  0  0  0  0
    0.5289    1.2813    0.0000 C   0  0  0  0  0  0  0  0  0  0  0  0
   -1.8066   -1.2876    0.0000 O   0  0  0  0  0  0  0  0  0  0  0  0
   -0.3470    1.6899    0.0000 N   0  0  0  0  0  0  0  0  0  0  0  0
   -1.0151   -0.8207    0.0000 C   0  0  0  0  0  0  0  0  0  0  0  0
    3.6552    5.2057    0.0000 O   0  0  0  0  0  0  0  0  0  0  0  0
    2.8444   -0.4314    0.0000 O   0  0  0  0  0  0  0  0  0  0  0  0
    0.5093   -1.9881    0.0000 O   0  0  0  0  0  0  0  0  0  0  0  0
   -1.0151    0.1007    0.0000 C   0  0  0  0  0  0  0  0  0  0  0  0
   -4.9204   -3.8046    0.0000 O   0  0  0  0  0  0  0  0  0  0  0  0
    2.8444    2.3126    0.0000 C   0  0  0  0  0  0  0  0  0  0  0  0
   -4.1615   -4.6349    0.0000 O   0  0  0  0  0  0  0  0  0  0  0  0
   -0.3470    2.7926    0.0000 O   0  0  0  0  0  0  0  0  0  0  0  0
   -4.1615   -0.9113    0.0000 C   0  0  0  0  0  0  0  0  0  0  0  0
   -3.2726   -5.2057    0.0000 C   0  0  0  0  0  0  0  0  0  0  0  0
    2.0530    0.8791    0.0000 H   0  0  0  0  0  0  0  0  0  0  0  0
    1.2876   -0.3340    0.0000 H   0  0  0  0  0  0  0  0  0  0  0  0
  2  5  1  0  0  0  0
  3  1  1  0  0  0  0
  4 25  1  0  0  0  0
  5  6  1  0  0  0  0
  6  1  1  0  0  0  0
  8  7  1  0  0  0  0
  8  3  1  0  0  0  0
  9 28  1  0  0  0  0
 10  9  1  0  0  0  0
 11  9  1  0  0  0  0
 12  7  2  0  0  0  0
 13 15  1  0  0  0  0
 14 12  1  0  0  0  0
 15 11  1  0  0  0  0
 16 10  1  0  0  0  0
 17  1  1  0  0  0  0
 18  3  1  0  0  0  0
 19  4  1  0  0  0  0
 20  2  1  0  0  0  0
 21  5  1  0  0  0  0
 22 26  1  0  0  0  0
 23 17  1  0  0  0  0
 24  6  1  0  0  0  0
 25 24  1  0  0  0  0
 26  7  1  0  0  0  0
  2 27  1  0  0  0  0
 30 28  1  0  0  0  0
 29 27  2  0  0  0  0
 30 19  1  0  0  0  0
 31 14  2  0  0  0  0
  1 32  1  0  0  0  0
  4 33  1  0  0  0  0
 34 20  1  0  0  0  0
 13 35  1  0  0  0  0
  3 36  1  0  0  0  0
 15 37  1  0  0  0  0
 38 29  1  0  0  0  0
 16 39  1  0  0  0  0
 40 37  1  0  0  0  0
  6 41  1  1  0  0  0
  5 42  1  6  0  0  0
  8 23  1  0  0  0  0
 21 18  1  0  0  0  0
  2  4  1  0  0  0  0
 34 30  1  0  0  0  0
 22 14  1  0  0  0  0
 16 13  1  0  0  0  0
M  END
>  <IDNUMBER> (0449-0080)
0449-0080

>  <available> (0449-0080)
185

>  <H_acceptor> (0449-0080)
10

>  <H_donor> (0449-0080)
4

>  <B_rotN> (0449-0080)
9

>  <N_O> (0449-0080)
10

>  <logP> (0449-0080)
1.45

>  <logD> (0449-0080)
1.13

>  <logSw> (0449-0080)
-4.75

>  <PSA> (0449-0080)
147.27

>  <Chiral_centers> (0449-0080)
12

>  <Name> (0449-0080)
4-{3a,5a-dihydroxy-7-[(5-hydroxy-4-methoxy-6-methyloxan-2-yl)oxy]-9a-[(E)-(hydroxyimino)methyl]-11a-methyl-hexadecahydro-1H-cyclopenta[a]phenanthren-1-yl}-2,5-dihydrofuran-2-one

>  <Smile> (0449-0080)
COC1CC(OC2CC3(C(C4C(C5(O)CCC(C5(C)CC4)C4=CC(=O)OC4)CC3)(CC2)C=NO)O)OC(C1O)C

>  <Collection> (0449-0080)
DC

>  <InChI Key> (0449-0080)
PEPJAXXSCUKYOD-GRPQKYMYSA-N

>  <PERCENTSP3> (0449-0080)
86.7

$$$$

  -ISIS-  -- StrEd -- 

 24 25  0  0  0  0  0  0  0  0999 V2000
   -1.7110    1.0036    0.0000 C   0  0  0  0  0  0  0  0  0  0  0  0
   -0.8640    0.5140    0.0000 C   0  0  0  0  0  0  0  0  0  0  0  0
   -2.5772    2.4868    0.0000 B   0  0  0  0  0  0  0  0  0  0  0  0
   -1.7110    1.9971    0.0000 O   0  0  0  0  0  0  0  0  0  0  0  0
    0.0073    1.0036    0.0000 C   0  0  0  0  0  0  0  0  0  0  0  0
    0.8739    0.5140    0.0000 C   0  0  0  0  0  0  0  0  0  0  0  0
   -2.5772    0.4894    0.0000 C   0  0  0  0  0  0  0  0  0  0  0  0
   -0.8640   -0.4994    0.0000 C   0  0  0  0  0  0  0  0  0  0  0  0
    0.8739   -0.4994    0.0000 C   0  0  0  0  0  0  0  0  0  0  0  0
    0.0317    1.9971    0.0000 O   0  0  0  0  0  0  0  0  0  0  0  0
   -2.5772    3.4949    0.0000 F   0  0  0  0  0  0  0  0  0  0  0  0
   -3.4485    1.9971    0.0000 F   0  0  0  0  0  0  0  0  0  0  0  0
   -2.5772   -0.4994    0.0000 C   0  0  0  0  0  0  0  0  0  0  0  0
    1.7351   -0.9937    0.0000 C   0  0  0  0  0  0  0  0  0  0  0  0
   -1.7110   -0.9937    0.0000 C   0  0  0  0  0  0  0  0  0  0  0  0
    3.4729   -1.9922    0.0000 C   0  0  0  0  0  0  0  0  0  0  0  0
    1.7351   -1.9922    0.0000 C   0  0  0  0  0  0  0  0  0  0  0  0
    2.6163   -0.4700    0.0000 C   0  0  0  0  0  0  0  0  0  0  0  0
    2.5772   -2.4819    0.0000 C   0  0  0  0  0  0  0  0  0  0  0  0
    3.4729   -0.9937    0.0000 C   0  0  0  0  0  0  0  0  0  0  0  0
   -3.4485   -0.9986    0.0000 O   0  0  0  0  0  0  0  0  0  0  0  0
    4.3394   -2.4819    0.0000 O   0  0  0  0  0  0  0  0  0  0  0  0
    4.3394   -3.4949    0.0000 C   0  0  0  0  0  0  0  0  0  0  0  0
   -4.3394   -0.5238    0.0000 C   0  0  0  0  0  0  0  0  0  0  0  0
  2  1  1  0  0  0  0
  3  4  1  0  0  0  0
  4  1  1  0  0  0  0
  5  2  1  0  0  0  0
  6  5  1  0  0  0  0
  7  1  2  0  0  0  0
  8  2  2  0  0  0  0
  9  6  2  0  0  0  0
 10  5  2  0  0  0  0
 11  3  1  0  0  0  0
 12  3  1  0  0  0  0
 13  7  1  0  0  0  0
 14  9  1  0  0  0  0
 15 13  2  0  0  0  0
 16 20  1  0  0  0  0
 17 14  2  0  0  0  0
 18 14  1  0  0  0  0
 19 17  1  0  0  0  0
 20 18  2  0  0  0  0
 21 13  1  0  0  0  0
 22 16  1  0  0  0  0
 23 22  1  0  0  0  0
 24 21  1  0  0  0  0
 15  8  1  0  0  0  0
 19 16  2  0  0  0  0
M  END
>  <IDNUMBER> (0579-0086)
0579-0086

>  <available> (0579-0086)
77

>  <H_acceptor> (0579-0086)
6

>  <H_donor> (0579-0086)
0

>  <B_rotN> (0579-0086)
6

>  <N_O> (0579-0086)
4

>  <logP> (0579-0086)
4.87

>  <logD> (0579-0086)
3.73

>  <logSw> (0579-0086)
-4.78

>  <PSA> (0579-0086)
44.76

>  <Chiral_centers> (0579-0086)
0

>  <Name> (0579-0086)
5-methoxy-2-[(2E)-3-(4-methoxyphenyl)prop-2-enoyl]phenyl difluoroborinate

>  <Smile> (0579-0086)
COc1cc(OB(F)F)c(C(C=Cc2ccc(OC)cc2)=O)cc1

>  <Collection> (0579-0086)
DC

>  <InChI Key> (0579-0086)
NLDWAUUUMXWZHZ-BJMVGYQFSA-N

>  <PERCENTSP3> (0579-0086)
11.8

$$$$

  -ISIS-  -- StrEd -- 

 39 45  0  0  0  0  0  0  0  0999 V2000
   -2.4852   -1.7211    0.0000 C   0  0  1  0  0  0  0  0  0  0  0  0
   -0.8264   -0.7818    0.0000 C   0  0  0  0  0  0  0  0  0  0  0  0
   -1.6529   -2.1969    0.0000 C   0  0  0  0  0  0  0  0  0  0  0  0
   -3.3116   -2.1969    0.0000 C   0  0  0  0  0  0  0  0  0  0  0  0
   -2.4852   -0.7818    0.0000 C   0  0  0  0  0  0  0  0  0  0  0  0
   -0.8264   -1.7211    0.0000 C   0  0  0  0  0  0  0  0  0  0  0  0
   -1.6529   -0.3121    0.0000 C   0  0  0  0  0  0  0  0  0  0  0  0
   -2.6101   -2.6487    0.0000 O   0  0  0  0  0  0  0  0  0  0  0  0
    0.0000   -0.3121    0.0000 C   0  0  0  0  0  0  0  0  0  0  0  0
    2.4673    1.0851    0.0000 C   0  0  0  0  0  0  0  0  0  0  0  0
    1.6411    0.6331    0.0000 C   0  0  0  0  0  0  0  0  0  0  0  0
   -3.3116   -3.1363    0.0000 C   0  0  0  0  0  0  0  0  0  0  0  0
    0.8264   -1.7211    0.0000 C   0  0  0  0  0  0  0  0  0  0  0  0
   -1.6529   -3.1363    0.0000 C   0  0  0  0  0  0  0  0  0  0  0  0
   -4.1381   -1.7211    0.0000 C   0  0  0  0  0  0  0  0  0  0  0  0
    0.8264   -0.7818    0.0000 C   0  0  0  0  0  0  0  0  0  0  0  0
   -4.9645   -3.1363    0.0000 C   0  0  2  0  0  0  0  0  0  0  0  0
   -3.3116   -0.3121    0.0000 O   0  0  0  0  0  0  0  0  0  0  0  0
   -4.1381   -3.6059    0.0000 C   0  0  0  0  0  0  0  0  0  0  0  0
   -2.4852   -3.6059    0.0000 C   0  0  0  0  0  0  0  0  0  0  0  0
    0.8264    1.1029    0.0000 C   0  0  0  0  0  0  0  0  0  0  0  0
    3.2818    0.5857    0.0000 C   0  0  0  0  0  0  0  0  0  0  0  0
    2.4793    2.0423    0.0000 C   0  0  0  0  0  0  0  0  0  0  0  0
    0.0000    0.6451    0.0000 C   0  0  0  0  0  0  0  0  0  0  0  0
   -0.8264    0.1873    0.0000 C   0  0  0  0  0  0  0  0  0  0  0  0
   -4.9645   -2.1969    0.0000 C   0  0  0  0  0  0  0  0  0  0  0  0
   -3.3236   -1.2515    0.0000 C   0  0  0  0  0  0  0  0  0  0  0  0
    3.3236    2.5001    0.0000 C   0  0  0  0  0  0  0  0  0  0  0  0
    3.2522   -0.3835    0.0000 C   0  0  0  0  0  0  0  0  0  0  0  0
    4.1381    1.0435    0.0000 C   0  0  0  0  0  0  0  0  0  0  0  0
    1.6529    2.5297    0.0000 C   0  0  0  0  0  0  0  0  0  0  0  0
   -0.7254    1.2753    0.0000 C   0  0  0  0  0  0  0  0  0  0  0  0
    4.0667   -0.9125    0.0000 C   0  0  0  0  0  0  0  0  0  0  0  0
    4.9645    0.5439    0.0000 C   0  0  0  0  0  0  0  0  0  0  0  0
    1.6827    3.4989    0.0000 C   0  0  0  0  0  0  0  0  0  0  0  0
    3.3534    3.4692    0.0000 C   0  0  0  0  0  0  0  0  0  0  0  0
    4.9349   -0.4370    0.0000 C   0  0  0  0  0  0  0  0  0  0  0  0
    2.5089    3.9627    0.0000 C   0  0  0  0  0  0  0  0  0  0  0  0
   -3.3236   -3.9627    0.0000 H   0  0  0  0  0  0  0  0  0  0  0  0
  2  7  1  0  0  0  0
  3  1  1  0  0  0  0
  4  1  1  0  0  0  0
  5  1  1  0  0  0  0
  6  3  1  0  0  0  0
  7  5  1  0  0  0  0
  1  8  1  6  0  0  0
  9  2  1  0  0  0  0
 10 11  2  0  0  0  0
 11 21  1  0  0  0  0
 12  4  1  0  0  0  0
 13  6  1  0  0  0  0
 14  3  1  0  0  0  0
 15  4  1  0  0  0  0
 16 13  1  0  0  0  0
 17  8  1  6  0  0  0
 18  5  2  0  0  0  0
 19 17  1  0  0  0  0
 20 12  1  0  0  0  0
 24 21  1  0  0  0  0
 22 10  1  0  0  0  0
 23 10  1  0  0  0  0
  9 24  1  0  0  0  0
  2 25  1  0  0  0  0
 26 17  1  0  0  0  0
  4 27  1  0  0  0  0
 28 23  2  0  0  0  0
 29 22  2  0  0  0  0
 30 22  1  0  0  0  0
 31 23  1  0  0  0  0
 32 24  1  0  0  0  0
 33 29  1  0  0  0  0
 34 30  2  0  0  0  0
 35 31  2  0  0  0  0
 36 28  1  0  0  0  0
 37 34  1  0  0  0  0
 38 35  1  0  0  0  0
 12 39  1  0  0  0  0
  2  6  1  0  0  0  0
 15 26  1  0  0  0  0
 12 19  1  0  0  0  0
 20 14  1  0  0  0  0
 16  9  1  0  0  0  0
 36 38  2  0  0  0  0
 33 37  2  0  0  0  0
M  END
>  <IDNUMBER> (1080-0560)
1080-0560

>  <available> (1080-0560)
44

>  <H_acceptor> (1080-0560)
2

>  <H_donor> (1080-0560)
0

>  <B_rotN> (1080-0560)
5

>  <N_O> (1080-0560)
2

>  <logP> (1080-0560)
7.73

>  <logD> (1080-0560)
8.81

>  <logSw> (1080-0560)
-8.16

>  <PSA> (1080-0560)
26.3

>  <Chiral_centers> (1080-0560)
9

>  <Name> (1080-0560)
(1R,14R)-4,17-dimethyl-5-(1-methyl-4,4-diphenyl-3-butenyl)-18-oxapentacyclo[12.3.1.0~1,9~.0~4,8~.0~12,17~]octadecan-2-one

>  <Smile> (1080-0560)
c1ccc(C(=CCC(C2C3(CC(C45C6(CCC(O4)CC6CCC5C3CC2)C)=O)C)C)c2ccccc2)cc1

>  <Collection> (1080-0560)
DC

>  <InChI Key> (1080-0560)
DRVVVPKGAZKYPG-YUBKBJKOSA-N

>  <PERCENTSP3> (1080-0560)
58.3

$$$$

  -ISIS-  -- StrEd -- 

 25 28  0  0  0  0  0  0  0  0999 V2000
   -0.2859    0.2573    0.0000 C   0  0  0  0  0  0  0  0  0  0  0  0
   -0.2859    1.2517    0.0000 C   0  0  0  0  0  0  0  0  0  0  0  0
    0.5588    1.7355    0.0000 C   0  0  0  0  0  0  0  0  0  0  0  0
   -1.1306   -0.2267    0.0000 C   0  0  0  0  0  0  0  0  0  0  0  0
   -1.1306    1.7355    0.0000 C   0  0  0  0  0  0  0  0  0  0  0  0
   -1.9753    1.2297    0.0000 O   0  0  0  0  0  0  0  0  0  0  0  0
   -1.9753    0.2396    0.0000 C   0  0  0  0  0  0  0  0  0  0  0  0
    0.5588   -0.2486    0.0000 C   0  0  0  0  0  0  0  0  0  0  0  0
    1.4255    1.2517    0.0000 O   0  0  0  0  0  0  0  0  0  0  0  0
    2.2792    1.7795    0.0000 C   0  0  0  0  0  0  0  0  0  0  0  0
    0.5368    2.7211    0.0000 C   0  0  0  0  0  0  0  0  0  0  0  0
    0.5368   -1.2385    0.0000 N   0  0  0  0  0  0  0  0  0  0  0  0
    1.3815    3.2359    0.0000 C   0  0  0  0  0  0  0  0  0  0  0  0
    2.2615    2.7606    0.0000 C   0  0  0  0  0  0  0  0  0  0  0  0
   -1.1306   -1.2209    0.0000 O   0  0  0  0  0  0  0  0  0  0  0  0
   -1.1306    2.6992    0.0000 C   0  0  0  0  0  0  0  0  0  0  0  0
    3.1148    1.2517    0.0000 O   0  0  0  0  0  0  0  0  0  0  0  0
   -0.2859    3.1831    0.0000 C   0  0  0  0  0  0  0  0  0  0  0  0
   -3.1148    0.1341    0.0000 C   0  0  0  0  0  0  0  0  0  0  0  0
   -2.5781   -0.8513    0.0000 C   0  0  0  0  0  0  0  0  0  0  0  0
   -0.3255   -1.7048    0.0000 C   0  0  0  0  0  0  0  0  0  0  0  0
    1.3815   -1.7576    0.0000 C   0  0  0  0  0  0  0  0  0  0  0  0
   -0.3607   -2.7080    0.0000 C   0  0  0  0  0  0  0  0  0  0  0  0
    1.3507   -2.7608    0.0000 C   0  0  0  0  0  0  0  0  0  0  0  0
    0.4752   -3.2359    0.0000 C   0  0  0  0  0  0  0  0  0  0  0  0
  2  1  1  0  0  0  0
  3  2  1  0  0  0  0
  4  1  1  0  0  0  0
  5  2  2  0  0  0  0
  6  7  1  0  0  0  0
  7  4  1  0  0  0  0
  8  1  2  0  0  0  0
  9  3  1  0  0  0  0
 10  9  1  0  0  0  0
 11  3  2  0  0  0  0
 12  8  1  0  0  0  0
 13 11  1  0  0  0  0
 14 13  2  0  0  0  0
 15  4  2  0  0  0  0
 16  5  1  0  0  0  0
 17 10  2  0  0  0  0
 18 16  2  0  0  0  0
  7 19  1  0  0  0  0
 20  7  1  0  0  0  0
 21 12  1  0  0  0  0
 22 12  1  0  0  0  0
 23 21  1  0  0  0  0
 24 22  1  0  0  0  0
 25 24  1  0  0  0  0
  5  6  1  0  0  0  0
 18 11  1  0  0  0  0
 25 23  1  0  0  0  0
 14 10  1  0  0  0  0
M  END
>  <IDNUMBER> (1363-0062)
1363-0062

>  <available> (1363-0062)
26

>  <H_acceptor> (1363-0062)
4

>  <H_donor> (1363-0062)
0

>  <B_rotN> (1363-0062)
1

>  <N_O> (1363-0062)
5

>  <logP> (1363-0062)
2.74

>  <logD> (1363-0062)
2.18

>  <logSw> (1363-0062)
-2.99

>  <PSA> (1363-0062)
55.84

>  <Chiral_centers> (1363-0062)
0

>  <Name> (1363-0062)
(10Z)-8,8-dimethyl-10-[(piperidin-1-yl)methylidene]-2H,8H,9H,10H-pyrano[2,3-h]chromene-2,9-dione

>  <Smile> (1363-0062)
C1CCN(C=C2C(C(Oc3c2c2c(cc3)C=CC(O2)=O)(C)C)=O)CC1

>  <Collection> (1363-0062)
DC

>  <InChI Key> (1363-0062)
YSECHPURTOEANS-OWBHPGMISA-N

>  <PERCENTSP3> (1363-0062)
40

$$$$

  -ISIS-  -- StrEd -- 

 19 21  0  0  0  0  0  0  0  0999 V2000
    0.1171   -0.4979    0.0000 C   0  0  0  0  0  0  0  0  0  0  0  0
    0.9799   -1.0132    0.0000 N   0  0  0  0  0  0  0  0  0  0  0  0
    1.8429    0.4978    0.0000 C   0  0  0  0  0  0  0  0  0  0  0  0
    1.8429   -0.4979    0.0000 C   0  0  0  0  0  0  0  0  0  0  0  0
    0.1171    0.4978    0.0000 C   0  0  0  0  0  0  0  0  0  0  0  0
    0.9799    1.0014    0.0000 C   0  0  0  0  0  0  0  0  0  0  0  0
   -0.7341   -1.0132    0.0000 C   0  0  0  0  0  0  0  0  0  0  0  0
   -0.7341    1.0014    0.0000 C   0  0  0  0  0  0  0  0  0  0  0  0
    2.7958   -0.8063    0.0000 O   0  0  0  0  0  0  0  0  0  0  0  0
    2.7958    0.8142    0.0000 C   0  0  0  0  0  0  0  0  0  0  0  0
   -1.6088   -0.4979    0.0000 C   0  0  0  0  0  0  0  0  0  0  0  0
    3.3697    0.0097    0.0000 C   0  0  0  0  0  0  0  0  0  0  0  0
   -1.6088    0.4978    0.0000 C   0  0  0  0  0  0  0  0  0  0  0  0
    0.9799    2.0050    0.0000 O   0  0  0  0  0  0  0  0  0  0  0  0
   -0.7341   -1.9973    0.0000 O   0  0  0  0  0  0  0  0  0  0  0  0
   -2.4873   -1.0132    0.0000 O   0  0  0  0  0  0  0  0  0  0  0  0
    0.1171   -2.4932    0.0000 C   0  0  0  0  0  0  0  0  0  0  0  0
    1.8429    2.4932    0.0000 C   0  0  0  0  0  0  0  0  0  0  0  0
   -3.3697   -0.4979    0.0000 C   0  0  0  0  0  0  0  0  0  0  0  0
  2  1  1  0  0  0  0
  3  6  2  0  0  0  0
  4  2  2  0  0  0  0
  5  1  2  0  0  0  0
  6  5  1  0  0  0  0
  7  1  1  0  0  0  0
  8  5  1  0  0  0  0
  9  4  1  0  0  0  0
 10  3  1  0  0  0  0
 11  7  2  0  0  0  0
 12  9  1  0  0  0  0
 13 11  1  0  0  0  0
 14  6  1  0  0  0  0
 15  7  1  0  0  0  0
 16 11  1  0  0  0  0
 17 15  1  0  0  0  0
 18 14  1  0  0  0  0
 19 16  1  0  0  0  0
  3  4  1  0  0  0  0
 13  8  2  0  0  0  0
 12 10  2  0  0  0  0
M  END
>  <IDNUMBER> (1481-0002)
1481-0002

>  <available> (1481-0002)
280

>  <H_acceptor> (1481-0002)
4

>  <H_donor> (1481-0002)
0

>  <B_rotN> (1481-0002)
3

>  <N_O> (1481-0002)
5

>  <logP> (1481-0002)
1.725

>  <logD> (1481-0002)
2.81404

>  <logSw> (1481-0002)
-4.6292

>  <PSA> (1481-0002)
53.72

>  <Chiral_centers> (1481-0002)
0

>  <Name> (1481-0002)
4,7,8-trimethoxyfuro[2,3-b]quinoline

>  <Smile> (1481-0002)
c12nc3occc3c(c1ccc(c2OC)OC)OC

>  <Collection> (1481-0002)
DC

>  <InChI Key> (1481-0002)
SLSIBLKBHNKZTB-UHFFFAOYSA-N

>  <PERCENTSP3> (1481-0002)
21.4

$$$$

  -ISIS-  -- StrEd -- 

 22 23  0  0  0  0  0  0  0  0999 V2000
   -0.9207   -0.2127    0.0000 C   0  0  1  0  0  0  0  0  0  0  0  0
   -0.9207   -1.1729    0.0000 C   0  0  0  0  0  0  0  0  0  0  0  0
   -0.0760    0.2674    0.0000 C   0  0  2  0  0  0  0  0  0  0  0  0
    0.7687   -0.2127    0.0000 C   0  0  1  0  0  0  0  0  0  0  0  0
   -1.7652   -1.6530    0.0000 C   0  0  1  0  0  0  0  0  0  0  0  0
   -0.0760   -1.6530    0.0000 C   0  0  0  0  0  0  0  0  0  0  0  0
   -0.0760    1.2336    0.0000 C   0  0  0  0  0  0  0  0  0  0  0  0
    0.7687   -1.1729    0.0000 C   0  0  0  0  0  0  0  0  0  0  0  0
    1.6194    1.2336    0.0000 C   0  0  1  0  0  0  0  0  0  0  0  0
    1.6194    0.2674    0.0000 C   0  0  0  0  0  0  0  0  0  0  0  0
    2.4642   -0.2127    0.0000 C   0  0  0  0  0  0  0  0  0  0  0  0
    0.7687    1.7137    0.0000 C   0  0  0  0  0  0  0  0  0  0  0  0
   -1.7652    0.2674    0.0000 C   0  0  0  0  0  0  0  0  0  0  0  0
    1.6924   -0.6624    0.0000 O   0  0  0  0  0  0  0  0  0  0  0  0
   -0.9207    1.0450    0.0000 C   0  0  0  0  0  0  0  0  0  0  0  0
    1.5891    2.1511    0.0000 O   0  0  0  0  0  0  0  0  0  0  0  0
   -2.6100   -1.1729    0.0000 C   0  0  0  0  0  0  0  0  0  0  0  0
   -2.6100   -0.2127    0.0000 C   0  0  0  0  0  0  0  0  0  0  0  0
    0.7870    0.8386    0.0000 C   0  0  0  0  0  0  0  0  0  0  0  0
   -2.6403   -2.1511    0.0000 C   0  0  0  0  0  0  0  0  0  0  0  0
   -0.8173   -2.1208    0.0000 C   0  0  0  0  0  0  0  0  0  0  0  0
    2.6403    0.6501    0.0000 C   0  0  0  0  0  0  0  0  0  0  0  0
  2  1  1  0  0  0  0
  3  1  1  0  0  0  0
  4  3  1  0  0  0  0
  5  2  1  0  0  0  0
  6  2  1  0  0  0  0
  3  7  1  1  0  0  0
  8  4  1  0  0  0  0
  9 12  1  0  0  0  0
 10  9  1  0  0  0  0
 11 10  2  0  0  0  0
 12  7  1  0  0  0  0
 13  1  1  0  0  0  0
  4 14  1  6  0  0  0
  1 15  1  1  0  0  0
  9 16  1  1  0  0  0
 17 18  1  0  0  0  0
 18 13  1  0  0  0  0
  4 19  1  1  0  0  0
  5 20  1  6  0  0  0
  5 21  1  1  0  0  0
  9 22  1  6  0  0  0
  5 17  1  0  0  0  0
  8  6  1  0  0  0  0
M  END
>  <IDNUMBER> (N003-0005)
N003-0005

>  <available> (N003-0005)
230

>  <H_acceptor> (N003-0005)
2

>  <H_donor> (N003-0005)
2

>  <B_rotN> (N003-0005)
3

>  <N_O> (N003-0005)
2

>  <logP> (N003-0005)
5.23

>  <logD> (N003-0005)
5.23

>  <logSw> (N003-0005)
-6.56

>  <PSA> (N003-0005)
40.46

>  <Chiral_centers> (N003-0005)
5

>  <Name> (N003-0005)
(1R,2R,8aS)-1-[(3R)-3-hydroxy-3-methyl-4-penten-1-yl]-2,5,5,8a-tetramethyldecahydro-2-naphthalenol

>  <Smile> (N003-0005)
[C@]12(C([C@@](CCC1)(C)C)CC[C@]([C@@H]2CC[C@](C=C)(O)C)(O)C)C

>  <Collection> (N003-0005)
NC

>  <InChI Key> (N003-0005)
XVULBTBTFGYVRC-FFADBYAMSA-N

>  <PERCENTSP3> (N003-0005)
90

$$$$

  -ISIS-  -- StrEd -- 

 39 44  0  0  0  0  0  0  0  0999 V2000
    1.2463    0.1859    0.0000 C   0  0  0  0  0  0  0  0  0  0  0  0
    0.2257   -2.6782    0.0000 C   0  0  0  0  0  0  0  0  0  0  0  0
    0.2354    0.2105    0.0000 C   0  0  0  0  0  0  0  0  0  0  0  0
    0.6764   -3.5600    0.0000 C   0  0  0  0  0  0  0  0  0  0  0  0
    1.5683    1.1620    0.0000 C   0  0  0  0  0  0  0  0  0  0  0  0
   -0.7506   -2.8466    0.0000 C   0  0  0  0  0  0  0  0  0  0  0  0
   -0.0124   -4.2736    0.0000 O   0  0  0  0  0  0  0  0  0  0  0  0
   -0.0868    1.1522    0.0000 O   0  0  0  0  0  0  0  0  0  0  0  0
    0.7705    1.7319    0.0000 C   0  0  0  0  0  0  0  0  0  0  0  0
   -0.8943   -3.8227    0.0000 C   0  0  0  0  0  0  0  0  0  0  0  0
    1.7815    3.1043    0.0000 C   0  0  0  0  0  0  0  0  0  0  0  0
   -2.6037   -3.5850    0.0000 C   0  0  0  0  0  0  0  0  0  0  0  0
    2.5791    2.5297    0.0000 C   0  0  0  0  0  0  0  0  0  0  0  0
   -2.4651   -2.6090    0.0000 C   0  0  0  0  0  0  0  0  0  0  0  0
    2.4504    1.5436    0.0000 C   0  0  0  0  0  0  0  0  0  0  0  0
   -1.5335   -2.2272    0.0000 C   0  0  0  0  0  0  0  0  0  0  0  0
   -1.8209   -4.2044    0.0000 C   0  0  0  0  0  0  0  0  0  0  0  0
    0.8549    2.6833    0.0000 C   0  0  0  0  0  0  0  0  0  0  0  0
    1.5585   -1.5881    0.0000 N   0  0  0  0  0  0  0  0  0  0  0  0
    3.5206    2.9359    0.0000 C   0  0  0  0  0  0  0  0  0  0  0  0
   -3.2482   -1.9797    0.0000 C   0  0  0  0  0  0  0  0  0  0  0  0
    1.9150   -0.6566    0.0000 C   0  0  0  0  0  0  0  0  0  0  0  0
    0.5822   -1.7515    0.0000 C   0  0  0  0  0  0  0  0  0  0  0  0
    3.2828   -2.1827    0.0000 C   0  0  0  0  0  0  0  0  0  0  0  0
    1.6526   -3.6890    0.0000 O   0  0  0  0  0  0  0  0  0  0  0  0
   -0.3345   -0.5971    0.0000 O   0  0  0  0  0  0  0  0  0  0  0  0
    2.3166   -2.3957    0.0000 O   0  0  0  0  0  0  0  0  0  0  0  0
    3.9913   -2.8566    0.0000 O   0  0  0  0  0  0  0  0  0  0  0  0
   -3.1043   -1.0032    0.0000 C   0  0  0  0  0  0  0  0  0  0  0  0
    4.3283    2.3611    0.0000 C   0  0  0  0  0  0  0  0  0  0  0  0
    1.9003    4.1302    0.0000 C   0  0  0  0  0  0  0  0  0  0  0  0
   -3.5455   -3.9664    0.0000 C   0  0  0  0  0  0  0  0  0  0  0  0
    0.9488    3.6394    0.0000 C   0  0  0  0  0  0  0  0  0  0  0  0
   -2.7377   -4.5216    0.0000 C   0  0  0  0  0  0  0  0  0  0  0  0
    3.6248    3.9270    0.0000 C   0  0  0  0  0  0  0  0  0  0  0  0
   -4.1894   -2.3461    0.0000 C   0  0  0  0  0  0  0  0  0  0  0  0
   -4.3283   -3.3324    0.0000 C   0  0  0  0  0  0  0  0  0  0  0  0
    2.8071    4.5216    0.0000 C   0  0  0  0  0  0  0  0  0  0  0  0
    3.6248   -1.2512    0.0000 C   0  0  0  0  0  0  0  0  0  0  0  0
  2 23  1  0  0  0  0
  3  1  1  0  0  0  0
  4  2  1  0  0  0  0
  5  1  1  0  0  0  0
  6  2  1  0  0  0  0
  7  4  1  0  0  0  0
  8  3  1  0  0  0  0
  9  5  1  0  0  0  0
 10  6  1  0  0  0  0
 13 11  1  0  0  0  0
 14 12  1  0  0  0  0
 13 15  1  0  0  0  0
 14 16  1  0  0  0  0
 15  5  1  0  0  0  0
 16  6  1  0  0  0  0
 17 10  1  0  0  0  0
 18  9  1  0  0  0  0
 19 22  1  0  0  0  0
 20 13  1  0  0  0  0
 21 14  1  0  0  0  0
  1 22  1  0  0  0  0
 23 19  1  0  0  0  0
 24 27  1  0  0  0  0
 25  4  2  0  0  0  0
 26  3  2  0  0  0  0
 27 19  1  0  0  0  0
 28 24  2  0  0  0  0
 29 21  2  0  0  0  0
 30 20  2  0  0  0  0
 31 11  1  0  0  0  0
 32 12  1  0  0  0  0
 11 33  1  0  0  0  0
 12 34  1  0  0  0  0
 35 20  1  0  0  0  0
 36 21  1  0  0  0  0
 37 36  1  0  0  0  0
 38 35  1  0  0  0  0
 39 24  1  0  0  0  0
  8  9  1  0  0  0  0
 11 18  1  0  0  0  0
 10  7  1  0  0  0  0
 31 38  1  0  0  0  0
 12 17  1  0  0  0  0
 32 37  1  0  0  0  0
M  END
>  <IDNUMBER> (N004-0003)
N004-0003

>  <available> (N004-0003)
164

>  <H_acceptor> (N004-0003)
6

>  <H_donor> (N004-0003)
0

>  <B_rotN> (N004-0003)
5

>  <N_O> (N004-0003)
7

>  <logP> (N004-0003)
3.825

>  <logD> (N004-0003)
7.207

>  <logSw> (N004-0003)
-5.63

>  <PSA> (N004-0003)
82.14

>  <Chiral_centers> (N004-0003)
10

>  <Name> (N004-0003)
bis({8a-methyl-5-methylidene-2-oxo-dodecahydronaphtho[2,3-b]furan-3-yl}methyl)amino acetate

>  <Smile> (N004-0003)
C1(C(OC2C1CC1C(C2)(CCCC1=C)C)=O)CN(CC1C(OC2C1CC1C(C2)(CCCC1=C)C)=O)OC(=O)C

>  <Collection> (N004-0003)
DC

>  <InChI Key> (N004-0003)
MCCXNEZASUGBKE-UHFFFAOYSA-N

>  <PERCENTSP3> (N004-0003)
78.1

$$$$

  -ISIS-  -- StrEd -- 

 50 54  0  0  0  0  0  0  0  0999 V2000
   -2.1534   -0.9055    0.0000 C   0  0  0  0  0  0  0  0  0  0  0  0
   -3.0224   -0.3985    0.0000 C   0  0  0  0  0  0  0  0  0  0  0  0
   -1.3103   -0.3985    0.0000 C   0  0  0  0  0  0  0  0  0  0  0  0
   -2.1534    1.1028    0.0000 O   0  0  0  0  0  0  0  0  0  0  0  0
   -3.0224    0.5958    0.0000 C   0  0  0  0  0  0  0  0  0  0  0  0
   -1.3103    0.5958    0.0000 C   0  0  2  0  0  0  0  0  0  0  0  0
    2.1466    0.5367    0.0000 O   0  0  0  0  0  0  0  0  0  0  0  0
   -3.8917   -0.9055    0.0000 C   0  0  0  0  0  0  0  0  0  0  0  0
    3.0486    1.0436    0.0000 C   0  0  0  0  0  0  0  0  0  0  0  0
    2.2123    2.5449    0.0000 O   0  0  0  0  0  0  0  0  0  0  0  0
    3.0486    2.0050    0.0000 C   0  0  2  0  0  0  0  0  0  0  0  0
    1.3103    1.0436    0.0000 C   0  0  0  0  0  0  0  0  0  0  0  0
   -0.4148    1.1028    0.0000 C   0  0  0  0  0  0  0  0  0  0  0  0
    3.9182    0.5367    0.0000 C   0  0  0  0  0  0  0  0  0  0  0  0
    1.3435    2.0510    0.0000 C   0  0  0  0  0  0  0  0  0  0  0  0
   -0.3953   -0.8728    0.0000 O   0  0  0  0  0  0  0  0  0  0  0  0
   -3.8917    1.1028    0.0000 C   0  0  0  0  0  0  0  0  0  0  0  0
   -4.7610   -0.3985    0.0000 C   0  0  0  0  0  0  0  0  0  0  0  0
   -4.7610    0.5958    0.0000 C   0  0  0  0  0  0  0  0  0  0  0  0
    0.4410    0.5696    0.0000 C   0  0  0  0  0  0  0  0  0  0  0  0
   -3.9182   -1.8999    0.0000 O   0  0  0  0  0  0  0  0  0  0  0  0
    5.6563   -0.4577    0.0000 C   0  0  0  0  0  0  0  0  0  0  0  0
    4.7542    1.0436    0.0000 C   0  0  0  0  0  0  0  0  0  0  0  0
    5.6563    0.5367    0.0000 C   0  0  0  0  0  0  0  0  0  0  0  0
    6.5585   -0.9647    0.0000 O   0  0  0  0  0  0  0  0  0  0  0  0
   -0.3159   -1.8669    0.0000 C   0  0  0  0  0  0  0  0  0  0  0  0
   -4.7872   -2.3741    0.0000 C   0  0  0  0  0  0  0  0  0  0  0  0
    6.5915   -1.9591    0.0000 C   0  0  0  0  0  0  0  0  0  0  0  0
   -2.1534   -1.8999    0.0000 O   0  0  0  0  0  0  0  0  0  0  0  0
   -6.5125    0.5497    0.0000 C   0  0  0  0  0  0  0  0  0  0  0  0
    5.6695    2.3869    0.0000 C   0  0  0  0  0  0  0  0  0  0  0  0
   -5.6565    1.0698    0.0000 O   0  0  0  0  0  0  0  0  0  0  0  0
    3.9509    2.4793    0.0000 C   0  0  0  0  0  0  0  0  0  0  0  0
   -0.3953    2.0842    0.0000 C   0  0  0  0  0  0  0  0  0  0  0  0
    3.9182   -0.4907    0.0000 C   0  0  0  0  0  0  0  0  0  0  0  0
    0.5069    2.5714    0.0000 C   0  0  0  0  0  0  0  0  0  0  0  0
    4.7870   -0.9647    0.0000 C   0  0  0  0  0  0  0  0  0  0  0  0
    4.7870    1.9391    0.0000 O   0  0  0  0  0  0  0  0  0  0  0  0
   -5.6762   -1.9326    0.0000 O   0  0  0  0  0  0  0  0  0  0  0  0
   -1.0733   -2.4860    0.0000 O   0  0  0  0  0  0  0  0  0  0  0  0
    5.7814   -2.5322    0.0000 O   0  0  0  0  0  0  0  0  0  0  0  0
   -7.4278    0.9447    0.0000 O   0  0  0  0  0  0  0  0  0  0  0  0
    6.5388    1.9129    0.0000 O   0  0  0  0  0  0  0  0  0  0  0  0
    6.5255    1.0698    0.0000 O   0  0  0  0  0  0  0  0  0  0  0  0
    7.4278   -2.4663    0.0000 C   0  0  0  0  0  0  0  0  0  0  0  0
    0.5529   -2.3409    0.0000 C   0  0  0  0  0  0  0  0  0  0  0  0
   -4.8664   -3.3680    0.0000 C   0  0  0  0  0  0  0  0  0  0  0  0
   -6.5455   -0.4577    0.0000 C   0  0  0  0  0  0  0  0  0  0  0  0
    5.7814    3.3680    0.0000 C   0  0  0  0  0  0  0  0  0  0  0  0
    7.4078    0.6156    0.0000 C   0  0  0  0  0  0  0  0  0  0  0  0
  2  1  1  0  0  0  0
  3  1  1  0  0  0  0
  4  6  1  0  0  0  0
  5  2  2  0  0  0  0
  6  3  1  0  0  0  0
  7 12  1  0  0  0  0
  8  2  1  0  0  0  0
  9  7  1  0  0  0  0
 10 15  1  0  0  0  0
 11 10  1  0  0  0  0
 12 20  1  0  0  0  0
  6 13  1  6  0  0  0
  9 14  1  0  0  0  0
 15 36  1  0  0  0  0
  3 16  1  0  0  0  0
 17  5  1  0  0  0  0
 18  8  2  0  0  0  0
 19 18  1  0  0  0  0
 20 13  2  0  0  0  0
 21  8  1  0  0  0  0
 22 37  1  0  0  0  0
 23 14  2  0  0  0  0
 24 23  1  0  0  0  0
 25 22  1  0  0  0  0
 26 16  1  0  0  0  0
 27 21  1  0  0  0  0
 28 25  1  0  0  0  0
 29  1  2  0  0  0  0
 30 32  1  0  0  0  0
 31 38  1  0  0  0  0
 32 19  1  0  0  0  0
 11 33  1  6  0  0  0
 34 13  1  0  0  0  0
 35 14  1  0  0  0  0
 36 34  2  0  0  0  0
 37 35  2  0  0  0  0
 38 33  1  0  0  0  0
 39 27  2  0  0  0  0
 40 26  2  0  0  0  0
 41 28  2  0  0  0  0
 42 30  2  0  0  0  0
 43 31  2  0  0  0  0
 44 24  1  0  0  0  0
 45 28  1  0  0  0  0
 46 26  1  0  0  0  0
 47 27  1  0  0  0  0
 48 30  1  0  0  0  0
 49 31  1  0  0  0  0
 50 44  1  0  0  0  0
  4  5  1  0  0  0  0
 17 19  2  0  0  0  0
 12 15  2  0  0  0  0
  9 11  1  0  0  0  0
 24 22  2  0  0  0  0
M  END
>  <IDNUMBER> (N005-0020)
N005-0020

>  <available> (N005-0020)
738

>  <H_acceptor> (N005-0020)
15

>  <H_donor> (N005-0020)
0

>  <B_rotN> (N005-0020)
14

>  <N_O> (N005-0020)
15

>  <logP> (N005-0020)
3.38

>  <logD> (N005-0020)
2.18

>  <logSw> (N005-0020)
-5.64

>  <PSA> (N005-0020)
185.49

>  <Chiral_centers> (N005-0020)
4

>  <Name> (N005-0020)
{3-[4-(acetyloxy)-3-methoxyphenyl]-6-[3,5,7-tris(acetyloxy)-4-oxo-3,4-dihydro-2H-1-benzopyran-2-yl]-2,3-dihydro-1,4-benzodioxin-2-yl}methyl acetate

>  <Smile> (N005-0020)
COc1c(OC(=O)C)ccc(C2Oc3cc(C4C(C(=O)c5c(O4)cc(cc5OC(=O)C)OC(=O)C)OC(=O)C)ccc3OC2COC(=O)C)c1

>  <Collection> (N005-0020)
DC

>  <InChI Key> (N005-0020)
WQNWIUDROMWSFM-ZFBZAWEPSA-N

>  <PERCENTSP3> (N005-0020)
31.4

$$$$

  -ISIS-  -- StrEd -- 

 38 43  0  0  0  0  0  0  0  0999 V2000
    1.5477   -0.7399    0.0000 C   0  0  0  0  0  0  0  0  0  0  0  0
   -1.0606   -1.2579    0.0000 C   0  0  0  0  0  0  0  0  0  0  0  0
    1.5477    0.2960    0.0000 C   0  0  0  0  0  0  0  0  0  0  0  0
   -1.0606   -2.2629    0.0000 C   0  0  0  0  0  0  0  0  0  0  0  0
   -0.2032   -0.7399    0.0000 C   0  0  2  0  0  0  0  0  0  0  0  0
    0.6722   -1.2579    0.0000 C   0  0  1  0  0  0  0  0  0  0  0  0
    2.7130    1.4983    0.0000 C   0  0  0  0  0  0  0  0  0  0  0  0
    2.4479    0.5489    0.0000 C   0  0  0  0  0  0  0  0  0  0  0  0
    3.6627    1.8497    0.0000 C   0  0  0  0  0  0  0  0  0  0  0  0
    3.6627    2.7376    0.0000 C   0  0  0  0  0  0  0  0  0  0  0  0
    2.4789   -1.0791    0.0000 C   0  0  0  0  0  0  0  0  0  0  0  0
    0.6414    0.7583    0.0000 C   0  0  0  0  0  0  0  0  0  0  0  0
   -1.9177   -0.7399    0.0000 C   0  0  0  0  0  0  0  0  0  0  0  0
   -0.2032    0.2530    0.0000 C   0  0  0  0  0  0  0  0  0  0  0  0
   -1.9177   -2.7686    0.0000 C   0  0  0  0  0  0  0  0  0  0  0  0
    2.7008    3.1262    0.0000 O   0  0  0  0  0  0  0  0  0  0  0  0
    3.0399   -0.2530    0.0000 C   0  0  0  0  0  0  0  0  0  0  0  0
    0.6722   -2.2629    0.0000 C   0  0  0  0  0  0  0  0  0  0  0  0
   -1.9177    0.2219    0.0000 N   0  0  0  0  0  0  0  0  0  0  0  0
   -0.2032   -2.7686    0.0000 C   0  0  0  0  0  0  0  0  0  0  0  0
   -1.0606   -0.2651    0.0000 C   0  0  0  0  0  0  0  0  0  0  0  0
    2.0039    2.3985    0.0000 C   0  0  0  0  0  0  0  0  0  0  0  0
    4.5196    3.2125    0.0000 O   0  0  0  0  0  0  0  0  0  0  0  0
    1.5477   -1.7449    0.0000 O   0  0  0  0  0  0  0  0  0  0  0  0
   -1.9177    1.2148    0.0000 N   0  0  0  0  0  0  0  0  0  0  0  0
   -1.0606   -3.2125    0.0000 O   0  0  0  0  0  0  0  0  0  0  0  0
   -2.8054   -2.2629    0.0000 C   0  0  1  0  0  0  0  0  0  0  0  0
    1.5477    1.2577    0.0000 C   0  0  0  0  0  0  0  0  0  0  0  0
   -2.8054   -1.2579    0.0000 C   0  0  0  0  0  0  0  0  0  0  0  0
   -2.7746    1.7018    0.0000 C   0  0  0  0  0  0  0  0  0  0  0  0
   -3.6934   -2.7686    0.0000 O   0  0  0  0  0  0  0  0  0  0  0  0
   -2.7746    2.7068    0.0000 C   0  0  0  0  0  0  0  0  0  0  0  0
   -3.6317    1.1839    0.0000 C   0  0  0  0  0  0  0  0  0  0  0  0
   -4.5196    1.6895    0.0000 C   0  0  0  0  0  0  0  0  0  0  0  0
   -3.6625    3.2125    0.0000 C   0  0  0  0  0  0  0  0  0  0  0  0
   -4.5196    2.6945    0.0000 C   0  0  0  0  0  0  0  0  0  0  0  0
    0.6722   -0.2960    0.0000 H   0  0  0  0  0  0  0  0  0  0  0  0
   -0.2032   -1.7142    0.0000 H   0  0  0  0  0  0  0  0  0  0  0  0
  2  5  1  0  0  0  0
  3  1  1  0  0  0  0
  4 20  1  0  0  0  0
  5  6  1  0  0  0  0
  6  1  1  0  0  0  0
  8  7  1  0  0  0  0
  8  3  1  0  0  0  0
  9  7  2  0  0  0  0
 10  9  1  0  0  0  0
 11  1  1  0  0  0  0
 12  3  1  0  0  0  0
 13  2  1  0  0  0  0
 14  5  1  0  0  0  0
 15  4  1  0  0  0  0
 16 22  1  0  0  0  0
 17 11  1  0  0  0  0
 18  6  1  0  0  0  0
 19 21  2  0  0  0  0
 20 18  1  0  0  0  0
  2 21  1  0  0  0  0
 22  7  1  0  0  0  0
 23 10  2  0  0  0  0
  1 24  1  0  0  0  0
 25 19  1  0  0  0  0
  4 26  1  0  0  0  0
 27 15  1  0  0  0  0
  3 28  1  0  0  0  0
 29 13  1  0  0  0  0
 30 25  1  0  0  0  0
 27 31  1  6  0  0  0
 32 30  2  0  0  0  0
 33 30  1  0  0  0  0
 34 33  2  0  0  0  0
 35 32  1  0  0  0  0
 36 34  1  0  0  0  0
  6 37  1  1  0  0  0
  5 38  1  6  0  0  0
 17  8  1  0  0  0  0
 14 12  1  0  0  0  0
  4  2  1  0  0  0  0
 27 29  1  0  0  0  0
 10 16  1  0  0  0  0
 36 35  2  0  0  0  0
M  END
>  <IDNUMBER> (N023-0005)
N023-0005

>  <available> (N023-0005)
181

>  <H_acceptor> (N023-0005)
6

>  <H_donor> (N023-0005)
4

>  <B_rotN> (N023-0005)
7

>  <N_O> (N023-0005)
7

>  <logP> (N023-0005)
2.65

>  <logD> (N023-0005)
3.75

>  <logSw> (N023-0005)
-3.75

>  <PSA> (N023-0005)
111.38

>  <Chiral_centers> (N023-0005)
8

>  <Name> (N023-0005)
4-{3a,5a,7-trihydroxy-11a-methyl-9a-[(E)-(2-phenylhydrazin-1-ylidene)methyl]-hexadecahydro-1H-cyclopenta[a]phenanthren-1-yl}-2,5-dihydrofuran-2-one

>  <Smile> (N023-0005)
c1ccc(NN=CC23C4C(C5(O)CCC(C5(C)CC4)C4=CC(OC4)=O)CCC2(O)CC(CC3)O)cc1

>  <Collection> (N023-0005)
DC

>  <InChI Key> (N023-0005)
XQYWJIDANYBAFF-BXDGXKOCSA-N

>  <PERCENTSP3> (N023-0005)
65.5

$$$$

  -ISIS-  -- StrEd -- 

 38 43  0  0  0  0  0  0  0  0999 V2000
    1.5379   -0.7413    0.0000 C   0  0  0  0  0  0  0  0  0  0  0  0
   -1.0747   -1.2601    0.0000 C   0  0  0  0  0  0  0  0  0  0  0  0
    1.5379    0.2964    0.0000 C   0  0  0  0  0  0  0  0  0  0  0  0
   -1.0747   -2.2668    0.0000 C   0  0  0  0  0  0  0  0  0  0  0  0
   -0.2160   -0.7413    0.0000 C   0  0  2  0  0  0  0  0  0  0  0  0
    0.6608   -1.2601    0.0000 C   0  0  1  0  0  0  0  0  0  0  0  0
    2.7054    1.5008    0.0000 C   0  0  0  0  0  0  0  0  0  0  0  0
    2.4398    0.5498    0.0000 C   0  0  0  0  0  0  0  0  0  0  0  0
    3.6566    1.8529    0.0000 C   0  0  0  0  0  0  0  0  0  0  0  0
    3.6566    2.7423    0.0000 C   0  0  0  0  0  0  0  0  0  0  0  0
    2.4707   -1.0808    0.0000 C   0  0  0  0  0  0  0  0  0  0  0  0
    0.6301    0.7597    0.0000 C   0  0  0  0  0  0  0  0  0  0  0  0
   -1.9333   -0.7413    0.0000 C   0  0  0  0  0  0  0  0  0  0  0  0
   -0.2160    0.2533    0.0000 C   0  0  0  0  0  0  0  0  0  0  0  0
   -1.9333   -2.7734    0.0000 C   0  0  0  0  0  0  0  0  0  0  0  0
    2.6931    3.1315    0.0000 O   0  0  0  0  0  0  0  0  0  0  0  0
    3.0327   -0.2533    0.0000 C   0  0  0  0  0  0  0  0  0  0  0  0
    0.6608   -2.2668    0.0000 C   0  0  0  0  0  0  0  0  0  0  0  0
   -0.2160   -2.7734    0.0000 C   0  0  0  0  0  0  0  0  0  0  0  0
    1.9950    2.4027    0.0000 C   0  0  0  0  0  0  0  0  0  0  0  0
   -1.0747   -0.2655    0.0000 C   0  0  0  0  0  0  0  0  0  0  0  0
   -1.9333    0.2222    0.0000 N   0  0  0  0  0  0  0  0  0  0  0  0
    4.5151    3.2181    0.0000 O   0  0  0  0  0  0  0  0  0  0  0  0
    1.5379   -1.7479    0.0000 O   0  0  0  0  0  0  0  0  0  0  0  0
   -1.0747   -3.2181    0.0000 O   0  0  0  0  0  0  0  0  0  0  0  0
   -2.8226   -2.2668    0.0000 C   0  0  1  0  0  0  0  0  0  0  0  0
    1.5379    1.2598    0.0000 C   0  0  0  0  0  0  0  0  0  0  0  0
   -2.8226   -1.2601    0.0000 C   0  0  0  0  0  0  0  0  0  0  0  0
   -1.9333    1.2170    0.0000 C   0  0  0  0  0  0  0  0  0  0  0  0
   -3.7121   -2.7734    0.0000 O   0  0  0  0  0  0  0  0  0  0  0  0
   -2.7917    1.7047    0.0000 C   0  0  0  0  0  0  0  0  0  0  0  0
   -2.7917    2.7301    0.0000 C   0  0  0  0  0  0  0  0  0  0  0  0
   -3.6503    1.2170    0.0000 C   0  0  0  0  0  0  0  0  0  0  0  0
   -4.5151    1.7231    0.0000 C   0  0  0  0  0  0  0  0  0  0  0  0
   -3.6503    3.2181    0.0000 C   0  0  0  0  0  0  0  0  0  0  0  0
   -4.5151    2.7114    0.0000 C   0  0  0  0  0  0  0  0  0  0  0  0
    0.6608   -0.2964    0.0000 H   0  0  0  0  0  0  0  0  0  0  0  0
   -0.2160   -1.7171    0.0000 H   0  0  0  0  0  0  0  0  0  0  0  0
  2  5  1  0  0  0  0
  3  1  1  0  0  0  0
  4 19  1  0  0  0  0
  5  6  1  0  0  0  0
  6  1  1  0  0  0  0
  8  7  1  0  0  0  0
  8  3  1  0  0  0  0
  9  7  2  0  0  0  0
 10  9  1  0  0  0  0
 11  1  1  0  0  0  0
 12  3  1  0  0  0  0
 13  2  1  0  0  0  0
 14  5  1  0  0  0  0
 15  4  1  0  0  0  0
 16 20  1  0  0  0  0
 17 11  1  0  0  0  0
 18  6  1  0  0  0  0
 19 18  1  0  0  0  0
 20  7  1  0  0  0  0
  2 21  1  0  0  0  0
 22 21  2  0  0  0  0
 23 10  2  0  0  0  0
  1 24  1  0  0  0  0
  4 25  1  0  0  0  0
 26 15  1  0  0  0  0
  3 27  1  0  0  0  0
 28 13  1  0  0  0  0
 29 22  1  0  0  0  0
 26 30  1  6  0  0  0
 31 29  1  0  0  0  0
 32 31  2  0  0  0  0
 33 31  1  0  0  0  0
 34 33  2  0  0  0  0
 35 32  1  0  0  0  0
 36 34  1  0  0  0  0
  6 37  1  1  0  0  0
  5 38  1  6  0  0  0
 17  8  1  0  0  0  0
 14 12  1  0  0  0  0
  2  4  1  0  0  0  0
 26 28  1  0  0  0  0
 10 16  1  0  0  0  0
 35 36  2  0  0  0  0
M  END
>  <IDNUMBER> (N023-0006)
N023-0006

>  <available> (N023-0006)
1

>  <H_acceptor> (N023-0006)
6

>  <H_donor> (N023-0006)
3

>  <B_rotN> (N023-0006)
7

>  <N_O> (N023-0006)
6

>  <logP> (N023-0006)
3.08

>  <logD> (N023-0006)
3.25

>  <logSw> (N023-0006)
-3.33

>  <PSA> (N023-0006)
99.35

>  <Chiral_centers> (N023-0006)
8

>  <Name> (N023-0006)
4-{9a-[(E)-(benzylimino)methyl]-3a,5a,7-trihydroxy-11a-methyl-hexadecahydro-1H-cyclopenta[a]phenanthren-1-yl}-2,5-dihydrofuran-2-one

>  <Smile> (N023-0006)
c1ccc(CN=CC23C4C(C5(O)CCC(C5(C)CC4)C4=CC(OC4)=O)CCC2(O)CC(CC3)O)cc1

>  <Collection> (N023-0006)
DC

>  <InChI Key> (N023-0006)
XHCMFPDIAHSYCE-SPGBCEOJSA-N

>  <PERCENTSP3> (N023-0006)
66.7

$$$$

  -ISIS-  -- StrEd -- 

 22 24  0  0  0  0  0  0  0  0999 V2000
    0.8853    0.2301    0.0000 C   0  0  0  0  0  0  0  0  0  0  0  0
    0.0176   -0.2789    0.0000 C   0  0  0  0  0  0  0  0  0  0  0  0
   -0.8544    0.2301    0.0000 C   0  0  0  0  0  0  0  0  0  0  0  0
   -0.8544    1.2350    0.0000 C   0  0  0  0  0  0  0  0  0  0  0  0
    0.8853    1.2350    0.0000 C   0  0  0  0  0  0  0  0  0  0  0  0
    0.0176    1.7397    0.0000 O   0  0  0  0  0  0  0  0  0  0  0  0
   -1.7308   -0.2789    0.0000 C   0  0  0  0  0  0  0  0  0  0  0  0
    1.7575   -0.2523    0.0000 C   0  0  0  0  0  0  0  0  0  0  0  0
   -1.7308    1.7397    0.0000 C   0  0  0  0  0  0  0  0  0  0  0  0
   -2.5985    0.2301    0.0000 C   0  0  0  0  0  0  0  0  0  0  0  0
    0.0176   -1.2749    0.0000 O   0  0  0  0  0  0  0  0  0  0  0  0
   -2.5985    1.2350    0.0000 C   0  0  0  0  0  0  0  0  0  0  0  0
    2.6073    0.2523    0.0000 C   0  0  0  0  0  0  0  0  0  0  0  0
    1.7354    1.7397    0.0000 C   0  0  0  0  0  0  0  0  0  0  0  0
    2.6073    1.2527    0.0000 C   0  0  0  0  0  0  0  0  0  0  0  0
   -1.7308   -1.2749    0.0000 O   0  0  0  0  0  0  0  0  0  0  0  0
    1.7752   -1.2573    0.0000 O   0  0  0  0  0  0  0  0  0  0  0  0
    3.4706   -0.2259    0.0000 O   0  0  0  0  0  0  0  0  0  0  0  0
   -3.4704    1.7175    0.0000 O   0  0  0  0  0  0  0  0  0  0  0  0
    2.6383   -1.7397    0.0000 C   0  0  0  0  0  0  0  0  0  0  0  0
    4.3205    0.2834    0.0000 C   0  0  0  0  0  0  0  0  0  0  0  0
   -4.3205    1.2085    0.0000 C   0  0  0  0  0  0  0  0  0  0  0  0
  2  1  1  0  0  0  0
  3  2  1  0  0  0  0
  4  6  1  0  0  0  0
  5  1  2  0  0  0  0
  6  5  1  0  0  0  0
  7  3  1  0  0  0  0
  8  1  1  0  0  0  0
  9  4  1  0  0  0  0
 10  7  2  0  0  0  0
 11  2  2  0  0  0  0
 12  9  2  0  0  0  0
 13  8  2  0  0  0  0
 14  5  1  0  0  0  0
 15 13  1  0  0  0  0
 16  7  1  0  0  0  0
 17  8  1  0  0  0  0
 18 13  1  0  0  0  0
 19 12  1  0  0  0  0
 20 17  1  0  0  0  0
 21 18  1  0  0  0  0
 22 19  1  0  0  0  0
 15 14  2  0  0  0  0
  4  3  2  0  0  0  0
 12 10  1  0  0  0  0
M  END
>  <IDNUMBER> (N025-0014)
N025-0014

>  <available> (N025-0014)
487

>  <H_acceptor> (N025-0014)
7

>  <H_donor> (N025-0014)
0

>  <B_rotN> (N025-0014)
5

>  <N_O> (N025-0014)
7

>  <logP> (N025-0014)
2.04

>  <logD> (N025-0014)
3.21

>  <logSw> (N025-0014)
-5.29

>  <PSA> (N025-0014)
74.22

>  <Chiral_centers> (N025-0014)
0

>  <Name> (N025-0014)
8-hydroxy-1,2,6-trimethoxy-9H-xanthen-9-one

>  <Smile> (N025-0014)
COc1cc2c(C(c3c(c(ccc3O2)OC)OC)=O)c(c1)O

>  <Collection> (N025-0014)
DC

>  <InChI Key> (N025-0014)
VYRIGRQQKUZPEX-UHFFFAOYSA-N

>  <PERCENTSP3> (N025-0014)
18.8

$$$$

  -ISIS-  -- StrEd -- 

 23 26  0  0  0  0  0  0  0  0999 V2000
    0.4292   -1.2464    0.0000 C   0  0  0  0  0  0  0  0  0  0  0  0
    0.4292   -0.2483    0.0000 C   0  0  0  0  0  0  0  0  0  0  0  0
   -0.4290    0.2483    0.0000 N   0  0  0  0  0  0  0  0  0  0  0  0
   -0.4387   -1.7429    0.0000 C   0  0  0  0  0  0  0  0  0  0  0  0
    1.2827   -1.7429    0.0000 C   0  0  0  0  0  0  0  0  0  0  0  0
   -0.4290    1.2415    0.0000 C   0  0  0  0  0  0  0  0  0  0  0  0
    0.4292    1.7285    0.0000 C   0  0  0  0  0  0  0  0  0  0  0  0
   -0.4387   -2.7603    0.0000 C   0  0  0  0  0  0  0  0  0  0  0  0
    1.2827   -2.7603    0.0000 C   0  0  0  0  0  0  0  0  0  0  0  0
    0.4292   -3.2570    0.0000 C   0  0  0  0  0  0  0  0  0  0  0  0
    0.4292    2.7459    0.0000 C   0  0  0  0  0  0  0  0  0  0  0  0
    2.1505   -1.2464    0.0000 O   0  0  0  0  0  0  0  0  0  0  0  0
   -1.3066   -1.2464    0.0000 C   0  0  0  0  0  0  0  0  0  0  0  0
   -1.2969    2.7459    0.0000 C   0  0  0  0  0  0  0  0  0  0  0  0
   -1.2969    1.7382    0.0000 C   0  0  0  0  0  0  0  0  0  0  0  0
    1.3066    1.2559    0.0000 C   0  0  0  0  0  0  0  0  0  0  0  0
   -0.4290    3.2570    0.0000 C   0  0  0  0  0  0  0  0  0  0  0  0
   -1.3066   -3.2570    0.0000 C   0  0  0  0  0  0  0  0  0  0  0  0
    1.2827    3.2425    0.0000 C   0  0  0  0  0  0  0  0  0  0  0  0
   -2.1745   -1.7429    0.0000 C   0  0  0  0  0  0  0  0  0  0  0  0
    2.1745    1.7767    0.0000 C   0  0  0  0  0  0  0  0  0  0  0  0
    2.1505    2.7603    0.0000 C   0  0  0  0  0  0  0  0  0  0  0  0
   -2.1745   -2.7603    0.0000 C   0  0  0  0  0  0  0  0  0  0  0  0
  2  1  1  0  0  0  0
  3  2  2  0  0  0  0
  4  1  1  0  0  0  0
  5  1  2  0  0  0  0
  6  3  1  0  0  0  0
  7  6  2  0  0  0  0
  8  4  2  0  0  0  0
  9  5  1  0  0  0  0
 10  9  2  0  0  0  0
 11  7  1  0  0  0  0
 12  5  1  0  0  0  0
 13  4  1  0  0  0  0
 14 15  2  0  0  0  0
 15  6  1  0  0  0  0
 16  7  1  0  0  0  0
 17 14  1  0  0  0  0
 18  8  1  0  0  0  0
 19 11  1  0  0  0  0
 20 13  2  0  0  0  0
 21 16  2  0  0  0  0
 22 21  1  0  0  0  0
 23 20  1  0  0  0  0
  8 10  1  0  0  0  0
 23 18  2  0  0  0  0
 17 11  2  0  0  0  0
 22 19  2  0  0  0  0
M  END
>  <IDNUMBER> (N007-0024)
N007-0024

>  <available> (N007-0024)
327

>  <H_acceptor> (N007-0024)
2

>  <H_donor> (N007-0024)
1

>  <B_rotN> (N007-0024)
3

>  <N_O> (N007-0024)
2

>  <logP> (N007-0024)
4.98

>  <logD> (N007-0024)
5.19

>  <logSw> (N007-0024)
-5.47

>  <PSA> (N007-0024)
32.59

>  <Chiral_centers> (N007-0024)
0

>  <Name> (N007-0024)
1-[(E)-[(naphthalen-1-yl)imino]methyl]naphthalen-2-ol

>  <Smile> (N007-0024)
c1cc2c(c(c(cc2)O)C=Nc2c3c(cccc3)ccc2)cc1

>  <Collection> (N007-0024)
DC

>  <InChI Key> (N007-0024)
CFVMLACBKWKHEP-HYARGMPZSA-N

>  <PERCENTSP3> (N007-0024)
0

$$$$

  -ISIS-  -- StrEd -- 

 24 27  0  0  0  0  0  0  0  0999 V2000
    0.0042   -0.2698    0.0000 C   0  0  2  0  0  0  0  0  0  0  0  0
    0.8511    0.1992    0.0000 C   0  0  1  0  0  0  0  0  0  0  0  0
    0.0042   -1.2869    0.0000 C   0  0  0  0  0  0  0  0  0  0  0  0
   -0.8718   -1.7935    0.0000 C   0  0  1  0  0  0  0  0  0  0  0  0
    1.6895    0.8136    0.0000 O   0  0  0  0  0  0  0  0  0  0  0  0
   -0.8718    0.2366    0.0000 C   0  0  0  0  0  0  0  0  0  0  0  0
    0.0747    0.7556    0.0000 C   0  0  0  0  0  0  0  0  0  0  0  0
    0.8717   -1.7935    0.0000 C   0  0  0  0  0  0  0  0  0  0  0  0
    1.3118    1.7519    0.0000 C   0  0  0  0  0  0  0  0  0  0  0  0
   -1.7394   -1.2869    0.0000 C   0  0  2  0  0  0  0  0  0  0  0  0
    1.7478   -0.2698    0.0000 C   0  0  0  0  0  0  0  0  0  0  0  0
   -1.7394   -0.2698    0.0000 C   0  0  0  0  0  0  0  0  0  0  0  0
    1.7478   -1.2869    0.0000 C   0  0  0  0  0  0  0  0  0  0  0  0
    1.7104    3.3086    0.0000 O   0  0  0  0  0  0  0  0  0  0  0  0
    0.3445    1.7436    0.0000 C   0  0  0  0  0  0  0  0  0  0  0  0
   -1.7270   -2.3041    0.0000 C   0  0  0  0  0  0  0  0  0  0  0  0
   -0.1619    0.6476    0.0000 C   0  0  0  0  0  0  0  0  0  0  0  0
    2.3372    1.8099    0.0000 C   0  0  0  0  0  0  0  0  0  0  0  0
   -0.0332   -2.3247    0.0000 C   0  0  0  0  0  0  0  0  0  0  0  0
   -2.6154   -1.7768    0.0000 O   0  0  0  0  0  0  0  0  0  0  0  0
    0.9507    2.6486    0.0000 C   0  0  0  0  0  0  0  0  0  0  0  0
   -1.7186   -3.3086    0.0000 O   0  0  0  0  0  0  0  0  0  0  0  0
    2.5573    2.7772    0.0000 C   0  0  0  0  0  0  0  0  0  0  0  0
    2.6154    0.2283    0.0000 C   0  0  0  0  0  0  0  0  0  0  0  0
  2  1  1  0  0  0  0
  3  1  1  0  0  0  0
  4  3  1  0  0  0  0
  5  2  1  0  0  0  0
  6  1  1  0  0  0  0
  2  7  1  1  0  0  0
  8  3  1  0  0  0  0
  9  5  1  0  0  0  0
 10 12  1  0  0  0  0
 11  2  1  0  0  0  0
 12  6  1  0  0  0  0
 13  8  1  0  0  0  0
 14 21  1  0  0  0  0
 15  7  1  0  0  0  0
  4 16  1  6  0  0  0
  1 17  1  1  0  0  0
 18  9  1  0  0  0  0
  4 19  1  1  0  0  0
 10 20  1  1  0  0  0
  9 21  1  0  0  0  0
 22 16  1  0  0  0  0
 23 18  1  0  0  0  0
 11 24  1  0  0  0  0
 10  4  1  0  0  0  0
 13 11  1  0  0  0  0
 15  9  1  0  0  0  0
 14 23  1  0  0  0  0
M  END
>  <IDNUMBER> (N010-0009)
N010-0009

>  <available> (N010-0009)
279

>  <H_acceptor> (N010-0009)
4

>  <H_donor> (N010-0009)
2

>  <B_rotN> (N010-0009)
3

>  <N_O> (N010-0009)
4

>  <logP> (N010-0009)
1.83

>  <logD> (N010-0009)
1.45

>  <logSw> (N010-0009)
-3.04

>  <PSA> (N010-0009)
58.92

>  <Chiral_centers> (N010-0009)
7

>  <Name> (N010-0009)
5-(hydroxymethyl)-2,5,8a-trimethyl-octahydro-2H-dispiro[naphthalene-1,2':5',3''-bis(oxolane)]-6-ol

>  <Smile> (N010-0009)
CC1C2(C3(CCC(C(C3CC1)(C)CO)O)C)OC1(COCC1)CC2

>  <Collection> (N010-0009)
DC

>  <InChI Key> (N010-0009)
UMRJYIFXXDLEKW-WJAHZDFMSA-N

>  <PERCENTSP3> (N010-0009)
100

$$$$

  -ISIS-  -- StrEd -- 

 30 32  0  0  0  0  0  0  0  0999 V2000
   -1.4846   -1.6997    0.0000 C   0  0  0  0  0  0  0  0  0  0  0  0
   -0.5311   -1.4383    0.0000 C   0  0  0  0  0  0  0  0  0  0  0  0
   -1.7572   -2.6806    0.0000 C   0  0  0  0  0  0  0  0  0  0  0  0
    3.1573    2.1684    0.0000 O   0  0  0  0  0  0  0  0  0  0  0  0
    2.1931    1.9341    0.0000 C   0  0  0  0  0  0  0  0  0  0  0  0
    3.4460    3.1383    0.0000 C   0  0  0  0  0  0  0  0  0  0  0  0
    0.1880   -2.1684    0.0000 C   0  0  0  0  0  0  0  0  0  0  0  0
   -0.0845   -3.1492    0.0000 C   0  0  0  0  0  0  0  0  0  0  0  0
   -1.1959   -0.7301    0.0000 C   0  0  0  0  0  0  0  0  0  0  0  0
    1.7735    3.6341    0.0000 C   0  0  0  0  0  0  0  0  0  0  0  0
   -1.0541   -3.3890    0.0000 C   0  0  0  0  0  0  0  0  0  0  0  0
   -2.7378   -2.9149    0.0000 C   0  0  0  0  0  0  0  0  0  0  0  0
    2.7542    3.8848    0.0000 C   0  0  0  0  0  0  0  0  0  0  0  0
    1.4956    2.6534    0.0000 C   0  0  0  0  0  0  0  0  0  0  0  0
    1.9151    0.9808    0.0000 C   0  0  0  0  0  0  0  0  0  0  0  0
   -0.2533   -0.4850    0.0000 C   0  0  0  0  0  0  0  0  0  0  0  0
   -2.8307   -0.2725    0.0000 C   0  0  0  0  0  0  0  0  0  0  0  0
    4.4268    3.3727    0.0000 O   0  0  0  0  0  0  0  0  0  0  0  0
   -3.1192   -1.2695    0.0000 O   0  0  0  0  0  0  0  0  0  0  0  0
    0.7003   -0.2234    0.0000 O   0  0  0  0  0  0  0  0  0  0  0  0
   -3.4298   -2.2121    0.0000 C   0  0  0  0  0  0  0  0  0  0  0  0
    0.9725    0.7192    0.0000 C   0  0  0  0  0  0  0  0  0  0  0  0
    0.5314    2.4082    0.0000 C   0  0  0  0  0  0  0  0  0  0  0  0
   -1.8771   -0.0382    0.0000 C   0  0  0  0  0  0  0  0  0  0  0  0
   -2.4654   -1.9234    0.0000 C   0  0  0  0  0  0  0  0  0  0  0  0
    0.2698    1.4384    0.0000 C   0  0  0  0  0  0  0  0  0  0  0  0
   -3.4463    0.4578    0.0000 O   0  0  0  0  0  0  0  0  0  0  0  0
    1.1577   -1.9234    0.0000 C   0  0  0  0  0  0  0  0  0  0  0  0
   -2.9885   -3.8848    0.0000 C   0  0  0  0  0  0  0  0  0  0  0  0
   -4.4268    0.3160    0.0000 C   0  0  0  0  0  0  0  0  0  0  0  0
  2  1  1  0  0  0  0
  3  1  1  0  0  0  0
  4  5  1  0  0  0  0
  5 15  1  0  0  0  0
  6  4  1  0  0  0  0
  7  2  1  0  0  0  0
  8 11  1  0  0  0  0
  1  9  1  0  0  0  0
 10 14  1  0  0  0  0
 11  3  1  0  0  0  0
  3 12  1  0  0  0  0
 13 10  2  0  0  0  0
 14 23  1  0  0  0  0
 15 22  2  0  0  0  0
  2 16  1  0  0  0  0
 17 24  1  0  0  0  0
 18  6  2  0  0  0  0
 19 17  2  0  0  0  0
 20 16  1  0  0  0  0
 21 12  2  0  0  0  0
 22 20  1  0  0  0  0
 23 26  2  0  0  0  0
 24  9  1  0  0  0  0
 25  1  1  0  0  0  0
 26 22  1  0  0  0  0
 27 17  1  0  0  0  0
 28  7  1  0  0  0  0
 29 12  1  0  0  0  0
 30 27  1  0  0  0  0
  7  8  2  0  0  0  0
  5 14  2  0  0  0  0
  6 13  1  0  0  0  0
M  END
>  <IDNUMBER> (N014-0001)
N014-0001

>  <available> (N014-0001)
139

>  <H_acceptor> (N014-0001)
5

>  <H_donor> (N014-0001)
0

>  <B_rotN> (N014-0001)
8

>  <N_O> (N014-0001)
5

>  <logP> (N014-0001)
5.05

>  <logD> (N014-0001)
6.13

>  <logSw> (N014-0001)
-6.59

>  <PSA> (N014-0001)
61.83

>  <Chiral_centers> (N014-0001)
3

>  <Name> (N014-0001)
methyl 3-(1,3-dimethyl-2-{[(2-oxo-2H-chromen-7-yl)oxy]methyl}-6-(prop-1-en-2-yl)cyclohex-3-en-1-yl)propanoate

>  <Smile> (N014-0001)
COC(CCC1(C)C(CC=C(C1COc1cc2OC(C=Cc2cc1)=O)C)C(=C)C)=O

>  <Collection> (N014-0001)
DC

>  <CLNUMBER> (N014-0001)
CV0119

>  <InChI Key> (N014-0001)
OAUDKNYNNMXLHJ-UHFFFAOYSA-N

>  <PERCENTSP3> (N014-0001)
44

$$$$

  -ISIS-  -- StrEd -- 

 30 32  0  0  0  0  0  0  0  0999 V2000
   -1.4829   -1.6955    0.0000 C   0  0  0  0  0  0  0  0  0  0  0  0
   -1.7554   -2.6769    0.0000 C   0  0  0  0  0  0  0  0  0  0  0  0
   -0.5289   -1.4338    0.0000 C   0  0  0  0  0  0  0  0  0  0  0  0
    3.1620    2.1697    0.0000 O   0  0  0  0  0  0  0  0  0  0  0  0
    2.1971    1.9354    0.0000 C   0  0  0  0  0  0  0  0  0  0  0  0
    3.4456    3.1457    0.0000 C   0  0  0  0  0  0  0  0  0  0  0  0
   -1.1994   -0.7304    0.0000 C   0  0  0  0  0  0  0  0  0  0  0  0
    1.7774    3.6364    0.0000 C   0  0  0  0  0  0  0  0  0  0  0  0
   -1.0521   -3.3910    0.0000 C   0  0  0  0  0  0  0  0  0  0  0  0
   -2.7366   -2.9166    0.0000 C   0  0  0  0  0  0  0  0  0  0  0  0
    2.7586    3.8872    0.0000 C   0  0  0  0  0  0  0  0  0  0  0  0
    1.4993    2.6550    0.0000 C   0  0  0  0  0  0  0  0  0  0  0  0
    1.9081    0.9868    0.0000 C   0  0  0  0  0  0  0  0  0  0  0  0
   -0.2508   -0.4852    0.0000 C   0  0  0  0  0  0  0  0  0  0  0  0
   -2.8347   -0.2725    0.0000 C   0  0  0  0  0  0  0  0  0  0  0  0
    0.1908   -2.1697    0.0000 C   0  0  0  0  0  0  0  0  0  0  0  0
    4.4269    3.3745    0.0000 O   0  0  0  0  0  0  0  0  0  0  0  0
   -0.0872   -3.1512    0.0000 C   0  0  0  0  0  0  0  0  0  0  0  0
   -3.1183   -1.2702    0.0000 O   0  0  0  0  0  0  0  0  0  0  0  0
    0.6978   -0.2236    0.0000 O   0  0  0  0  0  0  0  0  0  0  0  0
    0.9758    0.7250    0.0000 C   0  0  0  0  0  0  0  0  0  0  0  0
    0.5343    2.4097    0.0000 C   0  0  0  0  0  0  0  0  0  0  0  0
   -1.8753   -0.0273    0.0000 C   0  0  0  0  0  0  0  0  0  0  0  0
   -2.4642   -1.9244    0.0000 C   0  0  0  0  0  0  0  0  0  0  0  0
    0.2725    1.4447    0.0000 C   0  0  0  0  0  0  0  0  0  0  0  0
   -3.4456    0.4634    0.0000 O   0  0  0  0  0  0  0  0  0  0  0  0
   -3.4292   -2.2134    0.0000 C   0  0  0  0  0  0  0  0  0  0  0  0
   -2.9877   -3.8872    0.0000 C   0  0  0  0  0  0  0  0  0  0  0  0
    1.1558   -1.9244    0.0000 C   0  0  0  0  0  0  0  0  0  0  0  0
   -4.4269    0.3161    0.0000 C   0  0  0  0  0  0  0  0  0  0  0  0
  2  1  1  0  0  0  0
  3  1  1  0  0  0  0
  4  5  1  0  0  0  0
  5 13  1  0  0  0  0
  6  4  1  0  0  0  0
  1  7  1  0  0  0  0
  8 12  1  0  0  0  0
  9  2  1  0  0  0  0
 10  2  2  0  0  0  0
 11  8  2  0  0  0  0
 12 22  1  0  0  0  0
 13 21  2  0  0  0  0
  3 14  1  0  0  0  0
 15 23  1  0  0  0  0
 16  3  1  0  0  0  0
 17  6  2  0  0  0  0
 18 16  1  0  0  0  0
 19 15  2  0  0  0  0
 20 14  1  0  0  0  0
 21 20  1  0  0  0  0
 22 25  2  0  0  0  0
 23  7  1  0  0  0  0
 24  1  1  0  0  0  0
 25 21  1  0  0  0  0
 26 15  1  0  0  0  0
 27 10  1  0  0  0  0
 28 10  1  0  0  0  0
 16 29  1  0  0  0  0
 30 26  1  0  0  0  0
  9 18  1  0  0  0  0
 12  5  2  0  0  0  0
 11  6  1  0  0  0  0
M  END
>  <IDNUMBER> (N014-0002)
N014-0002

>  <available> (N014-0002)
34

>  <H_acceptor> (N014-0002)
9

>  <H_donor> (N014-0002)
2

>  <B_rotN> (N014-0002)
3

>  <N_O> (N014-0002)
10

>  <logP> (N014-0002)
0.61

>  <logD> (N014-0002)
-0.84

>  <logSw> (N014-0002)
0.76

>  <PSA> (N014-0002)
61.83

>  <Chiral_centers> (N014-0002)
3

>  <Name> (N014-0002)
methyl 3-(1,3-dimethyl-2-{[(2-oxo-2H-chromen-7-yl)oxy]methyl}-6-(propan-2-ylidene)cyclohexyl)propanoate

>  <Smile> (N014-0002)
COC(CCC1(C)C(COc2cc3OC(C=Cc3cc2)=O)C(CCC1=C(C)C)C)=O

>  <Collection> (N014-0002)
DC

>  <InChI Key> (N014-0002)
LYSHMNVQUVJTGP-UHFFFAOYSA-N

>  <PERCENTSP3> (N014-0002)
52

$$$$

  -ISIS-  -- StrEd -- 

 41 44  0  0  0  0  0  0  0  0999 V2000
    0.5873   -1.2402    0.0000 C   0  0  0  0  0  0  0  0  0  0  0  0
   -0.7043   -1.2636    0.0000 C   0  0  0  0  0  0  0  0  0  0  0  0
    1.0273   -2.1062    0.0000 C   0  0  0  0  0  0  0  0  0  0  0  0
   -1.3972   -2.1622    0.0000 C   0  0  0  0  0  0  0  0  0  0  0  0
    1.7481   -0.6226    0.0000 O   0  0  0  0  0  0  0  0  0  0  0  0
   -0.0632   -2.0732    0.0000 O   0  0  0  0  0  0  0  0  0  0  0  0
   -2.7356   -2.1530    0.0000 C   0  0  0  0  0  0  0  0  0  0  0  0
   -1.3877   -0.3745    0.0000 O   0  0  0  0  0  0  0  0  0  0  0  0
    2.4173   -2.1062    0.0000 C   0  0  0  0  0  0  0  0  0  0  0  0
   -3.4330   -1.2636    0.0000 C   0  0  0  0  0  0  0  0  0  0  0  0
    2.8573   -1.2402    0.0000 C   0  0  0  0  0  0  0  0  0  0  0  0
   -2.6888   -0.3649    0.0000 C   0  0  0  0  0  0  0  0  0  0  0  0
   -4.3411    1.6664    0.0000 C   0  0  0  0  0  0  0  0  0  0  0  0
    4.5328   -1.2073    0.0000 C   0  0  0  0  0  0  0  0  0  0  0  0
    4.5750   -2.1949    0.0000 C   0  0  0  0  0  0  0  0  0  0  0  0
   -3.4001    1.3434    0.0000 C   0  0  0  0  0  0  0  0  0  0  0  0
   -3.3862    0.6132    0.0000 O   0  0  0  0  0  0  0  0  0  0  0  0
    3.7326   -2.7239    0.0000 O   0  0  0  0  0  0  0  0  0  0  0  0
   -5.1039    1.0156    0.0000 C   0  0  0  0  0  0  0  0  0  0  0  0
    5.3611   -0.6551    0.0000 C   0  0  0  0  0  0  0  0  0  0  0  0
    2.8573   -2.2511    0.0000 C   0  0  0  0  0  0  0  0  0  0  0  0
   -2.7122    0.2294    0.0000 C   0  0  0  0  0  0  0  0  0  0  0  0
   -2.7122    1.8017    0.0000 O   0  0  0  0  0  0  0  0  0  0  0  0
    5.4548   -2.6679    0.0000 O   0  0  0  0  0  0  0  0  0  0  0  0
    0.5873   -0.4538    0.0000 C   0  0  0  0  0  0  0  0  0  0  0  0
    1.0273   -2.9017    0.0000 O   0  0  0  0  0  0  0  0  0  0  0  0
   -1.4204   -3.0047    0.0000 O   0  0  0  0  0  0  0  0  0  0  0  0
   -2.7262   -1.3104    0.0000 O   0  0  0  0  0  0  0  0  0  0  0  0
    2.3985   -1.4087    0.0000 O   0  0  0  0  0  0  0  0  0  0  0  0
   -3.4330   -2.1949    0.0000 O   0  0  0  0  0  0  0  0  0  0  0  0
   -4.9260    0.0283    0.0000 N   0  0  0  0  0  0  0  0  0  0  0  0
    6.2411   -1.0949    0.0000 N   0  0  0  0  0  0  0  0  0  0  0  0
    3.6577   -0.7487    0.0000 C   0  0  0  0  0  0  0  0  0  0  0  0
   -4.5094    2.6583    0.0000 C   0  0  0  0  0  0  0  0  0  0  0  0
   -0.2879    0.0283    0.0000 O   0  0  0  0  0  0  0  0  0  0  0  0
   -6.0586    1.3666    0.0000 C   0  0  0  0  0  0  0  0  0  0  0  0
    5.3192    0.3323    0.0000 C   0  0  0  0  0  0  0  0  0  0  0  0
   -5.4782    3.0047    0.0000 C   0  0  0  0  0  0  0  0  0  0  0  0
    3.6109    0.2434    0.0000 C   0  0  0  0  0  0  0  0  0  0  0  0
    4.4296    0.7909    0.0000 C   0  0  0  0  0  0  0  0  0  0  0  0
   -6.2411    2.3402    0.0000 C   0  0  0  0  0  0  0  0  0  0  0  0
  2  6  1  0  0  0  0
  3  1  1  0  0  0  0
  4  2  1  0  0  0  0
  5  1  1  0  0  0  0
  6  1  1  0  0  0  0
  7  4  1  0  0  0  0
  8  2  1  0  0  0  0
  9  3  1  0  0  0  0
 10 12  1  0  0  0  0
 11  5  1  0  0  0  0
 12  8  1  0  0  0  0
 13 16  1  0  0  0  0
 14 15  1  0  0  0  0
 15 18  1  0  0  0  0
 16 17  1  0  0  0  0
 17 22  1  0  0  0  0
 18 21  1  0  0  0  0
 19 13  1  0  0  0  0
 20 14  2  0  0  0  0
 11 21  1  0  0  0  0
 12 22  1  0  0  0  0
 23 16  2  0  0  0  0
 24 15  2  0  0  0  0
  1 25  1  0  0  0  0
  3 26  1  0  0  0  0
  4 27  1  0  0  0  0
  7 28  1  0  0  0  0
  9 29  1  0  0  0  0
 10 30  1  0  0  0  0
 31 19  1  0  0  0  0
 32 20  1  0  0  0  0
 33 14  1  0  0  0  0
 34 13  2  0  0  0  0
 35 25  1  0  0  0  0
 36 19  2  0  0  0  0
 37 20  1  0  0  0  0
 38 34  1  0  0  0  0
 39 33  2  0  0  0  0
 40 39  1  0  0  0  0
 41 38  2  0  0  0  0
  9 11  1  0  0  0  0
 10  7  1  0  0  0  0
 37 40  2  0  0  0  0
 36 41  1  0  0  0  0
M  END
>  <IDNUMBER> (N014-0016)
N014-0016

>  <available> (N014-0016)
543

>  <H_acceptor> (N014-0016)
13

>  <H_donor> (N014-0016)
10

>  <B_rotN> (N014-0016)
17

>  <N_O> (N014-0016)
15

>  <logP> (N014-0016)
-1.72

>  <logD> (N014-0016)
-2.27

>  <logSw> (N014-0016)
-2.77

>  <PSA> (N014-0016)
253.71

>  <Chiral_centers> (N014-0016)
9

>  <Name> (N014-0016)
[6-({5-[(2-aminobenzoyloxy)methyl]-3,4-dihydroxy-2-(hydroxymethyl)oxolan-2-yl}oxy)-3,4,5-trihydroxyoxan-2-yl]methyl 2-aminobenzoate

>  <Smile> (N014-0016)
c1cc(c(C(OCC2OC(OC3(CO)OC(C(C3O)O)COC(c3c(N)cccc3)=O)C(C(O)C2O)O)=O)cc1)N

>  <Collection> (N014-0016)
DC

>  <InChI Key> (N014-0016)
XUFAVVLEPRJAEI-UHFFFAOYSA-N

>  <PERCENTSP3> (N014-0016)
46.2

$$$$

  -ISIS-  -- StrEd -- 

 25 25  0  0  0  0  0  0  0  0999 V2000
   -2.1447    0.4433    0.0000 C   0  0  0  0  0  0  0  0  0  0  0  0
    1.3120   -0.5920    0.0000 C   0  0  0  0  0  0  0  0  0  0  0  0
   -1.2580   -0.0743    0.0000 C   0  0  0  0  0  0  0  0  0  0  0  0
    2.1670   -0.0968    0.0000 C   0  0  0  0  0  0  0  0  0  0  0  0
    0.4613   -1.0915    0.0000 C   0  0  0  0  0  0  0  0  0  0  0  0
   -1.2580   -1.0915    0.0000 O   0  0  0  0  0  0  0  0  0  0  0  0
   -2.1447    1.4380    0.0000 C   0  0  0  0  0  0  0  0  0  0  0  0
    3.0223    0.3982    0.0000 C   0  0  0  0  0  0  0  0  0  0  0  0
   -0.3938    0.4433    0.0000 O   0  0  0  0  0  0  0  0  0  0  0  0
   -0.3938   -1.5866    0.0000 C   0  0  0  0  0  0  0  0  0  0  0  0
    2.6758   -0.9610    0.0000 O   0  0  0  0  0  0  0  0  0  0  0  0
    0.8079    0.2723    0.0000 O   0  0  0  0  0  0  0  0  0  0  0  0
   -1.2806    1.9558    0.0000 N   0  0  0  0  0  0  0  0  0  0  0  0
    0.9700   -1.9558    0.0000 O   0  0  0  0  0  0  0  0  0  0  0  0
    3.5265   -0.4659    0.0000 O   0  0  0  0  0  0  0  0  0  0  0  0
   -3.0090   -0.0743    0.0000 C   0  0  0  0  0  0  0  0  0  0  0  0
    3.8730    1.8925    0.0000 O   0  0  0  0  0  0  0  0  0  0  0  0
    3.8730    0.8979    0.0000 C   0  0  0  0  0  0  0  0  0  0  0  0
   -3.0090    1.9331    0.0000 C   0  0  0  0  0  0  0  0  0  0  0  0
   -3.8730    0.4433    0.0000 C   0  0  0  0  0  0  0  0  0  0  0  0
   -3.8730    1.4380    0.0000 C   0  0  0  0  0  0  0  0  0  0  0  0
    1.6585    0.7673    0.0000 H   0  0  0  0  0  0  0  0  0  0  0  0
    2.5137    1.2625    0.0000 H   0  0  0  0  0  0  0  0  0  0  0  0
    1.8206   -1.4561    0.0000 H   0  0  0  0  0  0  0  0  0  0  0  0
   -0.0473   -0.2274    0.0000 H   0  0  0  0  0  0  0  0  0  0  0  0
  2  5  1  0  0  0  0
  3  1  1  0  0  0  0
  2  4  1  0  0  0  0
  5 10  1  0  0  0  0
  6  3  1  0  0  0  0
  7  1  2  0  0  0  0
  8  4  1  0  0  0  0
  9  3  2  0  0  0  0
 10  6  1  0  0  0  0
 11  4  1  0  0  0  0
 12  2  1  0  0  0  0
 13  7  1  0  0  0  0
 14  5  1  0  0  0  0
 15  8  1  0  0  0  0
 16  1  1  0  0  0  0
 17 18  1  0  0  0  0
 18  8  1  0  0  0  0
 19  7  1  0  0  0  0
 20 16  2  0  0  0  0
 21 20  1  0  0  0  0
 22  4  1  0  0  0  0
 23  8  1  0  0  0  0
 24  2  1  0  0  0  0
 25  5  1  0  0  0  0
 21 19  2  0  0  0  0
M  END
>  <IDNUMBER> (N014-0021)
N014-0021

>  <available> (N014-0021)
55

>  <H_acceptor> (N014-0021)
7

>  <H_donor> (N014-0021)
7

>  <B_rotN> (N014-0021)
13

>  <N_O> (N014-0021)
8

>  <logP> (N014-0021)
-1.64

>  <logD> (N014-0021)
-1.43

>  <logSw> (N014-0021)
0.83

>  <PSA> (N014-0021)
153.47

>  <Chiral_centers> (N014-0021)
4

>  <Name> (N014-0021)
2,3,4,5,6-pentahydroxyhexyl 2-aminobenzoate

>  <Smile> (N014-0021)
c1cc(c(cc1)C(OCC(C(O)C(O)C(CO)O)O)=O)N

>  <Collection> (N014-0021)
DC

>  <InChI Key> (N014-0021)
YPZRJRIKRNDDPO-UHFFFAOYSA-N

>  <PERCENTSP3> (N014-0021)
46.2

$$$$

  -ISIS-  -- StrEd -- 

112118  0  0  0  0  0  0  0  0999 V2000
    2.4791    1.5961    0.0000 C   0  0  0  0  0  0  0  0  0  0  0  0
    1.7235    0.2715    0.0000 C   0  0  1  0  0  0  0  0  0  0  0  0
    2.4791    0.6964    0.0000 C   0  0  2  0  0  0  0  0  0  0  0  0
    0.1953    0.2715    0.0000 C   0  0  2  0  0  0  0  0  0  0  0  0
   -4.1264   -1.5455    0.0000 C   0  0  0  0  0  0  0  0  0  0  0  0
   -4.7123   -5.1964    0.0000 C   0  0  0  0  0  0  0  0  0  0  0  0
   -2.9209   -3.1585    0.0000 C   0  0  0  0  0  0  0  0  0  0  0  0
    0.9675    0.6964    0.0000 C   0  0  0  0  0  0  0  0  0  0  0  0
   -2.9040   -6.0282    0.0000 C   0  0  0  0  0  0  0  0  0  0  0  0
   -2.2672   -2.3776    0.0000 C   0  0  0  0  0  0  0  0  0  0  0  0
   -3.5325   -5.1964    0.0000 O   0  0  0  0  0  0  0  0  0  0  0  0
   -2.9209   -1.5455    0.0000 O   0  0  0  0  0  0  0  0  0  0  0  0
    1.7235    2.0629    0.0000 C   0  0  0  0  0  0  0  0  0  0  0  0
   -3.5325   -6.8607    0.0000 C   0  0  0  0  0  0  0  0  0  0  0  0
    0.9675    1.5961    0.0000 C   0  0  0  0  0  0  0  0  0  0  0  0
   -4.7719   -2.3776    0.0000 C   0  0  0  0  0  0  0  0  0  0  0  0
   -5.4087   -6.0282    0.0000 C   0  0  0  0  0  0  0  0  0  0  0  0
   -4.1264   -3.1585    0.0000 C   0  0  0  0  0  0  0  0  0  0  0  0
    0.1953   -0.7134    0.0000 C   0  0  0  0  0  0  0  0  0  0  0  0
    3.4556    2.2668    0.0000 C   0  0  0  0  0  0  0  0  0  0  0  0
   -4.7123   -6.8607    0.0000 C   0  0  0  0  0  0  0  0  0  0  0  0
   -4.1264   -1.0358    0.0000 C   0  0  0  0  0  0  0  0  0  0  0  0
   -4.7123   -4.6614    0.0000 C   0  0  0  0  0  0  0  0  0  0  0  0
   -2.9040   -4.5426    0.0000 O   0  0  0  0  0  0  0  0  0  0  0  0
   -0.6202   -1.1971    0.0000 C   0  0  2  0  0  0  0  0  0  0  0  0
    5.3318    4.5253    0.0000 C   0  0  0  0  0  0  0  0  0  0  0  0
    4.4145    3.8968    0.0000 C   0  0  2  0  0  0  0  0  0  0  0  0
    3.4556    3.3621    0.0000 C   0  0  0  0  0  0  0  0  0  0  0  0
   -4.6358   -0.7726    0.0000 N   0  0  0  0  0  0  0  0  0  0  0  0
   -5.4506   -4.2791    0.0000 N   0  0  0  0  0  0  0  0  0  0  0  0
    4.4145    1.7148    0.0000 C   0  0  1  0  0  0  0  0  0  0  0  0
   -2.2672   -1.1971    0.0000 O   0  0  0  0  0  0  0  0  0  0  0  0
   -1.3924   -0.7134    0.0000 C   0  0  0  0  0  0  0  0  0  0  0  0
    6.8008    3.7953    0.0000 N   0  0  0  0  0  0  0  0  0  0  0  0
    1.7235   -0.7134    0.0000 C   0  0  0  0  0  0  0  0  0  0  0  0
   -0.6202    0.6964    0.0000 C   0  0  0  0  0  0  0  0  0  0  0  0
    3.4556    0.0423    0.0000 C   0  0  0  0  0  0  0  0  0  0  0  0
    0.9675   -1.1971    0.0000 C   0  0  0  0  0  0  0  0  0  0  0  0
    7.1232    5.1369    0.0000 C   0  0  0  0  0  0  0  0  0  0  0  0
   -6.4444   -3.2773    0.0000 C   0  0  0  0  0  0  0  0  0  0  0  0
   -5.6123    0.2040    0.0000 C   0  0  0  0  0  0  0  0  0  0  0  0
   -4.6358    0.2040    0.0000 C   0  0  0  0  0  0  0  0  0  0  0  0
   -6.4444   -4.2791    0.0000 C   0  0  0  0  0  0  0  0  0  0  0  0
    7.6329    4.2791    0.0000 C   0  0  0  0  0  0  0  0  0  0  0  0
    9.6109    2.5896    0.0000 C   0  0  0  0  0  0  0  0  0  0  0  0
   -3.7953    2.6488    0.0000 C   0  0  0  0  0  0  0  0  0  0  0  0
   -8.8473   -5.1112    0.0000 C   0  0  0  0  0  0  0  0  0  0  0  0
    0.0166    2.1397    0.0000 O   0  0  0  0  0  0  0  0  0  0  0  0
   -4.0841   -4.0755    0.0000 O   0  0  0  0  0  0  0  0  0  0  0  0
   -3.5155   -0.6708    0.0000 O   0  0  0  0  0  0  0  0  0  0  0  0
    4.4145    0.5942    0.0000 C   0  0  0  0  0  0  0  0  0  0  0  0
   -1.3924    0.2715    0.0000 C   0  0  0  0  0  0  0  0  0  0  0  0
    5.3318    5.7055    0.0000 O   0  0  0  0  0  0  0  0  0  0  0  0
    5.3744    3.3621    0.0000 C   0  0  0  0  0  0  0  0  0  0  0  0
    5.3744    2.2668    0.0000 C   0  0  0  0  0  0  0  0  0  0  0  0
    6.2488    5.1369    0.0000 O   0  0  0  0  0  0  0  0  0  0  0  0
   -5.5870   -2.7679    0.0000 O   0  0  0  0  0  0  0  0  0  0  0  0
   -6.0964   -0.6455    0.0000 O   0  0  0  0  0  0  0  0  0  0  0  0
   -4.6701    3.2008    0.0000 O   0  0  0  0  0  0  0  0  0  0  0  0
   10.6470    2.5726    0.0000 O   0  0  0  0  0  0  0  0  0  0  0  0
   -9.2207   -4.2372    0.0000 O   0  0  0  0  0  0  0  0  0  0  0  0
   -4.6358    1.1888    0.0000 C   0  0  0  0  0  0  0  0  0  0  0  0
    8.1423    3.4300    0.0000 C   0  0  0  0  0  0  0  0  0  0  0  0
   -7.4037   -4.2791    0.0000 C   0  0  0  0  0  0  0  0  0  0  0  0
   -3.5325   -7.7011    0.0000 O   0  0  0  0  0  0  0  0  0  0  0  0
   -5.4087   -7.0896    0.0000 O   0  0  0  0  0  0  0  0  0  0  0  0
   -4.7549   -3.3199    0.0000 O   0  0  0  0  0  0  0  0  0  0  0  0
   -4.1264   -2.3177    0.0000 O   0  0  0  0  0  0  0  0  0  0  0  0
   -4.7123   -6.0282    0.0000 O   0  0  0  0  0  0  0  0  0  0  0  0
    1.7235    1.1206    0.0000 C   0  0  0  0  0  0  0  0  0  0  0  0
    0.1953    1.1888    0.0000 C   0  0  0  0  0  0  0  0  0  0  0  0
   -7.8961   -5.1112    0.0000 C   0  0  0  0  0  0  0  0  0  0  0  0
    9.1188    3.4300    0.0000 C   0  0  0  0  0  0  0  0  0  0  0  0
   -3.7953    1.6722    0.0000 C   0  0  0  0  0  0  0  0  0  0  0  0
    2.4964   -0.3400    0.0000 C   0  0  0  0  0  0  0  0  0  0  0  0
    7.6156    5.9773    0.0000 O   0  0  0  0  0  0  0  0  0  0  0  0
   -7.2593   -2.7679    0.0000 O   0  0  0  0  0  0  0  0  0  0  0  0
   -6.1217    1.0444    0.0000 O   0  0  0  0  0  0  0  0  0  0  0  0
   -2.9209    3.0224    0.0000 O   0  0  0  0  0  0  0  0  0  0  0  0
   -9.3990   -5.9860    0.0000 O   0  0  0  0  0  0  0  0  0  0  0  0
    9.0427    1.8170    0.0000 O   0  0  0  0  0  0  0  0  0  0  0  0
   -1.1718   -2.3011    0.0000 C   0  0  0  0  0  0  0  0  0  0  0  0
    0.0509   -2.1144    0.0000 C   0  0  0  0  0  0  0  0  0  0  0  0
    3.4556    4.5084    0.0000 C   0  0  0  0  0  0  0  0  0  0  0  0
    5.4932    1.0610    0.0000 C   0  0  0  0  0  0  0  0  0  0  0  0
    7.1066    6.8178    0.0000 C   0  0  0  0  0  0  0  0  0  0  0  0
   -7.0813    1.0444    0.0000 C   0  0  0  0  0  0  0  0  0  0  0  0
   -8.0744   -3.2773    0.0000 C   0  0  0  0  0  0  0  0  0  0  0  0
    9.4243    0.9000    0.0000 C   0  0  0  0  0  0  0  0  0  0  0  0
   -2.9379    3.9986    0.0000 C   0  0  0  0  0  0  0  0  0  0  0  0
   -8.9492   -6.8607    0.0000 C   0  0  0  0  0  0  0  0  0  0  0  0
   -7.5654    1.8765    0.0000 C   0  0  0  0  0  0  0  0  0  0  0  0
    7.5734    7.6755    0.0000 C   0  0  0  0  0  0  0  0  0  0  0  0
    8.8384    0.0848    0.0000 C   0  0  0  0  0  0  0  0  0  0  0  0
   -8.9492   -2.8101    0.0000 C   0  0  0  0  0  0  0  0  0  0  0  0
   -1.8849    4.4065    0.0000 C   0  0  0  0  0  0  0  0  0  0  0  0
   -9.4842   -7.6755    0.0000 C   0  0  0  0  0  0  0  0  0  0  0  0
    9.2207   -0.8152    0.0000 C   0  0  0  0  0  0  0  0  0  0  0  0
   -9.7643   -3.2773    0.0000 C   0  0  0  0  0  0  0  0  0  0  0  0
   -8.5416    1.8765    0.0000 C   0  0  0  0  0  0  0  0  0  0  0  0
   -1.8849    5.3658    0.0000 C   0  0  0  0  0  0  0  0  0  0  0  0
    7.0640    8.5160    0.0000 C   0  0  0  0  0  0  0  0  0  0  0  0
   -9.0340   -8.5333    0.0000 C   0  0  0  0  0  0  0  0  0  0  0  0
    7.5311    9.3481    0.0000 C   0  0  0  0  0  0  0  0  0  0  0  0
   -9.0170    2.6914    0.0000 C   0  0  0  0  0  0  0  0  0  0  0  0
   -0.9852    5.7907    0.0000 C   0  0  0  0  0  0  0  0  0  0  0  0
    8.6770   -1.5881    0.0000 C   0  0  0  0  0  0  0  0  0  0  0  0
  -10.6470   -2.8101    0.0000 C   0  0  0  0  0  0  0  0  0  0  0  0
   -9.5437   -9.3481    0.0000 C   0  0  0  0  0  0  0  0  0  0  0  0
   -3.6509    0.2040    0.0000 H   0  0  0  0  0  0  0  0  0  0  0  0
    8.4734    4.7715    0.0000 H   0  0  0  0  0  0  0  0  0  0  0  0
   -6.4444   -5.2726    0.0000 H   0  0  0  0  0  0  0  0  0  0  0  0
  2  3  1  0  0  0  0
  3  1  1  0  0  0  0
  8  4  1  0  0  0  0
  5 12  1  0  0  0  0
  6 11  1  0  0  0  0
  7 10  1  0  0  0  0
  8 15  1  0  0  0  0
  9 24  1  0  0  0  0
 10 32  1  0  0  0  0
 11  9  1  0  0  0  0
 12 10  1  0  0  0  0
 13  1  2  0  0  0  0
 14  9  1  0  0  0  0
 15 13  1  0  0  0  0
 16  5  1  0  0  0  0
 17 21  1  0  0  0  0
 18  7  1  0  0  0  0
 19  4  1  0  0  0  0
 20  1  1  0  0  0  0
 21 14  1  0  0  0  0
  5 22  1  0  0  0  0
  6 23  1  0  0  0  0
  7 24  1  0  0  0  0
 25 19  1  0  0  0  0
 26 27  1  0  0  0  0
 27 28  1  0  0  0  0
 28 20  1  0  0  0  0
 29 22  1  0  0  0  0
 30 23  1  0  0  0  0
 31 20  1  0  0  0  0
 33 32  1  0  0  0  0
 33 52  1  0  0  0  0
 34 26  1  0  0  0  0
 35  2  1  0  0  0  0
 36  4  1  0  0  0  0
 37  3  1  0  0  0  0
 38 35  1  0  0  0  0
 39 44  1  0  0  0  0
 43 40  1  0  0  0  0
 42 41  1  0  0  0  0
 42 29  1  0  0  0  0
 43 30  1  0  0  0  0
 44 34  1  0  0  0  0
 45 73  1  0  0  0  0
 46 74  1  0  0  0  0
 47 72  1  0  0  0  0
 48 15  2  0  0  0  0
 49 23  2  0  0  0  0
 50 22  2  0  0  0  0
 51 31  1  0  0  0  0
 52 36  1  0  0  0  0
 53 26  2  0  0  0  0
 54 55  1  0  0  0  0
 55 31  1  0  0  0  0
 56 39  2  0  0  0  0
 57 40  2  0  0  0  0
 58 41  2  0  0  0  0
 59 46  2  0  0  0  0
 60 45  2  0  0  0  0
 61 47  2  0  0  0  0
 62 42  1  0  0  0  0
 44 63  1  0  0  0  0
 64 43  1  0  0  0  0
 14 65  1  0  0  0  0
 17 66  1  0  0  0  0
 16 67  1  0  0  0  0
 18 68  1  0  0  0  0
 21 69  1  0  0  0  0
  2 70  1  1  0  0  0
  4 71  1  1  0  0  0
 72 64  1  0  0  0  0
 73 63  1  0  0  0  0
 74 62  1  0  0  0  0
  3 75  1  6  0  0  0
 76 39  1  0  0  0  0
 77 40  1  0  0  0  0
 78 41  1  0  0  0  0
 79 46  1  0  0  0  0
 80 47  1  0  0  0  0
 81 45  1  0  0  0  0
 25 82  1  1  0  0  0
 25 83  1  6  0  0  0
 27 84  1  6  0  0  0
 31 85  1  1  0  0  0
 86 76  1  0  0  0  0
 87 78  1  0  0  0  0
 88 77  1  0  0  0  0
 89 81  1  0  0  0  0
 90 79  1  0  0  0  0
 91 80  1  0  0  0  0
 92 87  1  0  0  0  0
 93 86  1  0  0  0  0
 94 89  1  0  0  0  0
 95 88  1  0  0  0  0
 96 90  1  0  0  0  0
 97 91  1  0  0  0  0
 98 94  1  0  0  0  0
 99 95  1  0  0  0  0
100 92  1  0  0  0  0
101 96  1  0  0  0  0
102 93  1  0  0  0  0
103 97  1  0  0  0  0
104102  1  0  0  0  0
105100  1  0  0  0  0
106101  1  0  0  0  0
107 98  1  0  0  0  0
108 99  1  0  0  0  0
109103  1  0  0  0  0
110 42  1  0  0  0  0
111 44  1  0  0  0  0
112 43  1  0  0  0  0
 37 51  1  0  0  0  0
  2  8  1  0  0  0  0
 27 54  1  0  0  0  0
 38 19  1  0  0  0  0
 25 33  1  0  0  0  0
 16 18  1  0  0  0  0
  6 17  1  0  0  0  0
M  END
>  <IDNUMBER> (N016-0004)
N016-0004

>  <available> (N016-0004)
129

>  <H_acceptor> (N016-0004)
25

>  <H_donor> (N016-0004)
8

>  <B_rotN> (N016-0004)
54

>  <N_O> (N016-0004)
28

>  <logP> (N016-0004)
9.24

>  <logD> (N016-0004)
10.09

>  <logSw> (N016-0004)
-11.9

>  <PSA> (N016-0004)
400.24

>  <Chiral_centers> (N016-0004)
22

>  <Name> (N016-0004)
1,5-dibutyl 2-{[10-({6-[(1,5-dibutoxy-1,5-dioxopentan-2-yl)carbamoyl]-3-({6-[(1,5-dibutoxy-1,5-dioxopentan-2-yl)carbamoyl]-3,4,5-trihydroxyoxan-2-yl}oxy)-4,5-dihydroxyoxan-2-yl}oxy)-2,4a,6a,6b,9,9,12a
-heptamethyl-13-oxo-1,2,3,4,4a,5,6,6a,6b,7,8,8a,9,10,11,12,12a,12b,13,14b-icosahydropicen-2-yl]formamido}pentanedioate

>  <Smile> (N016-0004)
CCCCOC(CCC(NC(C1OC(OC2C(OC3C(C4C(C5C(C)(CC4)C4(C(C6CC(C(NC(C(=O)OCCCC)CCC(=O)OCCCC)=O)(C)CCC6(CC4)C)=CC5=O)C)(C)CC3)(C)C)OC(C(C2O)O)C(NC(C(=O)OCCCC)CCC(=O)OCCCC)=O)C(O)C(C1O)O)=O)C(=O)OCCCC)=O

>  <Collection> (N016-0004)
DC

>  <InChI Key> (N016-0004)
QAAHAFKVIVRXCX-QZBDRXDHSA-N

>  <PERCENTSP3> (N016-0004)
85.2

$$$$

  -ISIS-  -- StrEd -- 

 73 79  0  0  0  0  0  0  0  0999 V2000
    2.5308    2.5690    0.0000 C   0  0  0  0  0  0  0  0  0  0  0  0
    1.7798    1.2527    0.0000 C   0  0  1  0  0  0  0  0  0  0  0  0
    2.5308    1.6746    0.0000 C   0  0  2  0  0  0  0  0  0  0  0  0
    0.2615    1.2527    0.0000 C   0  0  2  0  0  0  0  0  0  0  0  0
   -4.0327   -0.5526    0.0000 C   0  0  0  0  0  0  0  0  0  0  0  0
   -4.6146   -4.1716    0.0000 C   0  0  0  0  0  0  0  0  0  0  0  0
   -2.8344   -2.1470    0.0000 C   0  0  0  0  0  0  0  0  0  0  0  0
    1.0291    1.6746    0.0000 C   0  0  0  0  0  0  0  0  0  0  0  0
   -2.8178   -5.0069    0.0000 C   0  0  0  0  0  0  0  0  0  0  0  0
   -2.1850   -1.3794    0.0000 C   0  0  0  0  0  0  0  0  0  0  0  0
   -3.4419   -4.1716    0.0000 O   0  0  0  0  0  0  0  0  0  0  0  0
   -2.8344   -0.5526    0.0000 O   0  0  0  0  0  0  0  0  0  0  0  0
    1.7798    3.0328    0.0000 C   0  0  0  0  0  0  0  0  0  0  0  0
   -3.4419   -5.8337    0.0000 C   0  0  0  0  0  0  0  0  0  0  0  0
    1.0291    2.5690    0.0000 C   0  0  0  0  0  0  0  0  0  0  0  0
   -4.6821   -1.3794    0.0000 C   0  0  0  0  0  0  0  0  0  0  0  0
   -5.3064   -5.0069    0.0000 C   0  0  0  0  0  0  0  0  0  0  0  0
   -4.0327   -2.1470    0.0000 C   0  0  0  0  0  0  0  0  0  0  0  0
    0.2615    0.2827    0.0000 C   0  0  0  0  0  0  0  0  0  0  0  0
    3.5008    3.2350    0.0000 C   0  0  0  0  0  0  0  0  0  0  0  0
   -4.6146   -5.8337    0.0000 C   0  0  0  0  0  0  0  0  0  0  0  0
   -4.0327   -0.0465    0.0000 C   0  0  0  0  0  0  0  0  0  0  0  0
   -4.6146   -3.6487    0.0000 C   0  0  0  0  0  0  0  0  0  0  0  0
   -2.8178   -3.5220    0.0000 O   0  0  0  0  0  0  0  0  0  0  0  0
   -0.5485   -0.2068    0.0000 C   0  0  2  0  0  0  0  0  0  0  0  0
    4.4543    4.8549    0.0000 C   0  0  1  0  0  0  0  0  0  0  0  0
    3.5008    4.3320    0.0000 C   0  0  0  0  0  0  0  0  0  0  0  0
   -4.5388    0.2234    0.0000 N   0  0  0  0  0  0  0  0  0  0  0  0
   -5.3485   -3.2605    0.0000 N   0  0  0  0  0  0  0  0  0  0  0  0
    4.4543    2.6868    0.0000 C   0  0  1  0  0  0  0  0  0  0  0  0
   -2.1850   -0.2068    0.0000 O   0  0  0  0  0  0  0  0  0  0  0  0
   -1.3163    0.2827    0.0000 C   0  0  0  0  0  0  0  0  0  0  0  0
    1.7798    0.2827    0.0000 C   0  0  0  0  0  0  0  0  0  0  0  0
    5.3652    5.4875    0.0000 C   0  0  0  0  0  0  0  0  0  0  0  0
   -0.5485    1.6746    0.0000 C   0  0  0  0  0  0  0  0  0  0  0  0
    3.5008    1.0334    0.0000 C   0  0  0  0  0  0  0  0  0  0  0  0
    1.0291   -0.2068    0.0000 C   0  0  0  0  0  0  0  0  0  0  0  0
   -6.3355   -2.2734    0.0000 C   0  0  0  0  0  0  0  0  0  0  0  0
   -5.5089    1.1938    0.0000 C   0  0  0  0  0  0  0  0  0  0  0  0
   -6.3355   -3.2605    0.0000 C   0  0  0  0  0  0  0  0  0  0  0  0
   -4.5388    1.1938    0.0000 C   0  0  0  0  0  0  0  0  0  0  0  0
    0.0758    3.1171    0.0000 O   0  0  0  0  0  0  0  0  0  0  0  0
   -3.9906   -3.0581    0.0000 O   0  0  0  0  0  0  0  0  0  0  0  0
   -3.4252    0.3248    0.0000 O   0  0  0  0  0  0  0  0  0  0  0  0
    4.4543    1.5734    0.0000 C   0  0  0  0  0  0  0  0  0  0  0  0
   -1.3163    1.2527    0.0000 C   0  0  0  0  0  0  0  0  0  0  0  0
    5.4075    4.3320    0.0000 C   0  0  0  0  0  0  0  0  0  0  0  0
    5.4075    3.2350    0.0000 C   0  0  0  0  0  0  0  0  0  0  0  0
    5.3652    6.6603    0.0000 O   0  0  0  0  0  0  0  0  0  0  0  0
   -5.4918   -1.7675    0.0000 O   0  0  0  0  0  0  0  0  0  0  0  0
   -5.9979    0.3417    0.0000 O   0  0  0  0  0  0  0  0  0  0  0  0
   -3.4419   -6.6603    0.0000 O   0  0  0  0  0  0  0  0  0  0  0  0
   -5.3064   -6.0528    0.0000 O   0  0  0  0  0  0  0  0  0  0  0  0
   -4.6568   -2.3073    0.0000 O   0  0  0  0  0  0  0  0  0  0  0  0
   -4.0327   -1.3204    0.0000 O   0  0  0  0  0  0  0  0  0  0  0  0
   -4.6146   -5.0069    0.0000 O   0  0  0  0  0  0  0  0  0  0  0  0
    1.7798    2.1048    0.0000 C   0  0  0  0  0  0  0  0  0  0  0  0
    0.2615    2.1638    0.0000 C   0  0  0  0  0  0  0  0  0  0  0  0
    2.5476    0.6455    0.0000 C   0  0  0  0  0  0  0  0  0  0  0  0
    6.4366    4.8549    0.0000 O   0  0  0  0  0  0  0  0  0  0  0  0
   -7.1452   -1.7675    0.0000 O   0  0  0  0  0  0  0  0  0  0  0  0
   -6.0152    2.0206    0.0000 O   0  0  0  0  0  0  0  0  0  0  0  0
   -1.0967   -1.2949    0.0000 C   0  0  0  0  0  0  0  0  0  0  0  0
    0.1180   -1.1179    0.0000 C   0  0  0  0  0  0  0  0  0  0  0  0
    3.5008    5.4624    0.0000 C   0  0  0  0  0  0  0  0  0  0  0  0
    5.5255    2.0456    0.0000 C   0  0  0  0  0  0  0  0  0  0  0  0
   -4.5388    2.1638    0.0000 C   0  0  0  0  0  0  0  0  0  0  0  0
   -7.2887   -3.2605    0.0000 C   0  0  0  0  0  0  0  0  0  0  0  0
    7.2887    5.4034    0.0000 C   0  0  0  0  0  0  0  0  0  0  0  0
   -7.1452   -0.7888    0.0000 C   0  0  0  0  0  0  0  0  0  0  0  0
   -6.9684    2.0206    0.0000 C   0  0  0  0  0  0  0  0  0  0  0  0
   -6.3355   -4.2559    0.0000 H   0  0  0  0  0  0  0  0  0  0  0  0
   -3.5685    1.1938    0.0000 H   0  0  0  0  0  0  0  0  0  0  0  0
  2  3  1  0  0  0  0
  3  1  1  0  0  0  0
  8  4  1  0  0  0  0
  5 12  1  0  0  0  0
  6 11  1  0  0  0  0
  7 10  1  0  0  0  0
  8 15  1  0  0  0  0
  9 24  1  0  0  0  0
 10 31  1  0  0  0  0
 11  9  1  0  0  0  0
 12 10  1  0  0  0  0
 13  1  2  0  0  0  0
 14  9  1  0  0  0  0
 15 13  1  0  0  0  0
 16  5  1  0  0  0  0
 17 21  1  0  0  0  0
 18  7  1  0  0  0  0
 19  4  1  0  0  0  0
 20  1  1  0  0  0  0
 21 14  1  0  0  0  0
  5 22  1  0  0  0  0
  6 23  1  0  0  0  0
  7 24  1  0  0  0  0
 25 19  1  0  0  0  0
 26 27  1  0  0  0  0
 27 20  1  0  0  0  0
 28 22  1  0  0  0  0
 29 23  1  0  0  0  0
 30 20  1  0  0  0  0
 32 31  1  0  0  0  0
 32 46  1  0  0  0  0
 33  2  1  0  0  0  0
 34 26  1  0  0  0  0
 35  4  1  0  0  0  0
 36  3  1  0  0  0  0
 37 33  1  0  0  0  0
 40 38  1  0  0  0  0
 41 39  1  0  0  0  0
 40 29  1  0  0  0  0
 41 28  1  0  0  0  0
 42 15  2  0  0  0  0
 43 23  2  0  0  0  0
 44 22  2  0  0  0  0
 45 30  1  0  0  0  0
 46 35  1  0  0  0  0
 47 48  1  0  0  0  0
 48 30  1  0  0  0  0
 49 34  2  0  0  0  0
 50 38  2  0  0  0  0
 51 39  2  0  0  0  0
 14 52  1  0  0  0  0
 17 53  1  0  0  0  0
 16 54  1  0  0  0  0
 18 55  1  0  0  0  0
 21 56  1  0  0  0  0
  2 57  1  1  0  0  0
  4 58  1  1  0  0  0
  3 59  1  6  0  0  0
 60 34  1  0  0  0  0
 61 38  1  0  0  0  0
 62 39  1  0  0  0  0
 25 63  1  1  0  0  0
 25 64  1  6  0  0  0
 26 65  1  6  0  0  0
 30 66  1  1  0  0  0
 67 41  1  0  0  0  0
 68 40  1  0  0  0  0
 69 60  1  0  0  0  0
 70 61  1  0  0  0  0
 71 62  1  0  0  0  0
 72 40  1  0  0  0  0
 73 41  1  0  0  0  0
 36 45  1  0  0  0  0
  2  8  1  0  0  0  0
 26 47  1  0  0  0  0
 37 19  1  0  0  0  0
 25 32  1  0  0  0  0
 16 18  1  0  0  0  0
  6 17  1  0  0  0  0
M  END
>  <IDNUMBER> (N016-0016)
N016-0016

>  <available> (N016-0016)
33

>  <H_acceptor> (N016-0016)
18

>  <H_donor> (N016-0016)
7

>  <B_rotN> (N016-0016)
21

>  <N_O> (N016-0016)
20

>  <logP> (N016-0016)
1.94

>  <logD> (N016-0016)
3.79

>  <logSw> (N016-0016)
-5.59

>  <PSA> (N016-0016)
292.24

>  <Chiral_centers> (N016-0016)
21

>  <Name> (N016-0016)
methyl 10-({4,5-dihydroxy-6-[(1-methoxy-1-oxopropan-2-yl)carbamoyl]-3-({3,4,5-trihydroxy-6-[(1-methoxy-1-oxopropan-2-yl)carbamoyl]oxan-2-yl}oxy)oxan-2-yl}oxy)-2,4a,6a,6b,9,9,12a-heptamethyl-13-oxo-1,2
,3,4,4a,5,6,6a,6b,7,8,8a,9,10,11,12,12a,12b,13,14b-icosahydropicene-2-carboxylate

>  <Smile> (N016-0016)
COC(C(NC(C1OC(C(OC2OC(C(C(C2O)O)O)C(NC(C(=O)OC)C)=O)C(C1O)O)OC1C(C2C(C3C(C)(CC2)C2(C(C4CC(CCC4(CC2)C)(C)C(=O)OC)=CC3=O)C)(C)CC1)(C)C)=O)C)=O

>  <Collection> (N016-0016)
DC

>  <InChI Key> (N016-0016)
FCPJCGMTHVIDHE-ORGXARGUSA-N

>  <PERCENTSP3> (N016-0016)
84.3

$$$$

  -ISIS-  -- StrEd -- 

121133  0  0  0  0  0  0  0  0999 V2000
    3.2632    3.9139    0.0000 C   0  0  0  0  0  0  0  0  0  0  0  0
    2.6082    2.7988    0.0000 C   0  0  1  0  0  0  0  0  0  0  0  0
    3.2632    3.1657    0.0000 C   0  0  2  0  0  0  0  0  0  0  0  0
   -3.8024    1.0363    0.0000 C   0  0  0  0  0  0  0  0  0  0  0  0
   -4.8531   -4.1226    0.0000 C   0  0  0  0  0  0  0  0  0  0  0  0
    1.3130    2.7988    0.0000 C   0  0  2  0  0  0  0  0  0  0  0  0
   -1.8163   -1.6405    0.0000 C   0  0  0  0  0  0  0  0  0  0  0  0
   -4.8889   -0.3597    0.0000 C   0  0  0  0  0  0  0  0  0  0  0  0
   -5.9754   -5.5258    0.0000 C   0  0  0  0  0  0  0  0  0  0  0  0
   -3.8024   -1.6405    0.0000 C   0  0  0  0  0  0  0  0  0  0  0  0
   -4.8531   -6.9215    0.0000 C   0  0  0  0  0  0  0  0  0  0  0  0
   -2.8671   -6.9215    0.0000 C   0  0  0  0  0  0  0  0  0  0  0  0
   -1.8311   -5.5258    0.0000 C   0  0  0  0  0  0  0  0  0  0  0  0
    1.9680    3.1657    0.0000 C   0  0  0  0  0  0  0  0  0  0  0  0
   -0.7590   -0.3597    0.0000 C   0  0  0  0  0  0  0  0  0  0  0  0
   -2.8671   -4.1226    0.0000 O   0  0  0  0  0  0  0  0  0  0  0  0
   -1.8163    1.0363    0.0000 O   0  0  0  0  0  0  0  0  0  0  0  0
    2.6082    4.3313    0.0000 C   0  0  0  0  0  0  0  0  0  0  0  0
    1.9680    3.9139    0.0000 C   0  0  0  0  0  0  0  0  0  0  0  0
    1.3130    1.9716    0.0000 C   0  0  0  0  0  0  0  0  0  0  0  0
   -3.8168    1.7845    0.0000 C   0  0  0  0  0  0  0  0  0  0  0  0
   -4.8531   -3.4680    0.0000 C   0  0  0  0  0  0  0  0  0  0  0  0
    4.0760    4.5043    0.0000 C   0  0  0  0  0  0  0  0  0  0  0  0
   -1.8311   -3.5041    0.0000 O   0  0  0  0  0  0  0  0  0  0  0  0
   -4.0399    4.3458    0.0000 C   0  0  0  0  0  0  0  0  0  0  0  0
    8.0116    4.8853    0.0000 C   0  0  0  0  0  0  0  0  0  0  0  0
   -8.1340   -3.8132    0.0000 C   0  0  0  0  0  0  0  0  0  0  0  0
    0.6225    1.5758    0.0000 C   0  0  1  0  0  0  0  0  0  0  0  0
    5.6807    6.4036    0.0000 C   0  0  0  0  0  0  0  0  0  0  0  0
    4.9033    5.8852    0.0000 C   0  0  2  0  0  0  0  0  0  0  0  0
   -5.8169   -3.1083    0.0000 N   0  0  0  0  0  0  0  0  0  0  0  0
   -4.7304    2.2160    0.0000 N   0  0  0  0  0  0  0  0  0  0  0  0
    4.0760    5.4179    0.0000 C   0  0  0  0  0  0  0  0  0  0  0  0
    7.5801    3.3022    0.0000 N   0  0  0  0  0  0  0  0  0  0  0  0
   -4.5076    5.8852    0.0000 N   0  0  0  0  0  0  0  0  0  0  0  0
   -9.7600   -3.3098    0.0000 N   0  0  0  0  0  0  0  0  0  0  0  0
    6.5080    5.8852    0.0000 N   0  0  0  0  0  0  0  0  0  0  0  0
    4.9033    4.0219    0.0000 C   0  0  1  0  0  0  0  0  0  0  0  0
   -0.7590    1.5758    0.0000 O   0  0  0  0  0  0  0  0  0  0  0  0
   -0.0177    1.9716    0.0000 C   0  0  0  0  0  0  0  0  0  0  0  0
   -8.7024   -2.9859    0.0000 C   0  0  0  0  0  0  0  0  0  0  0  0
   -4.8387    4.9716    0.0000 C   0  0  0  0  0  0  0  0  0  0  0  0
    7.2201    4.2811    0.0000 C   0  0  0  0  0  0  0  0  0  0  0  0
    2.6082    1.9716    0.0000 C   0  0  0  0  0  0  0  0  0  0  0  0
   -4.7304    2.9928    0.0000 C   0  0  0  0  0  0  0  0  0  0  0  0
   -6.6658   -3.1083    0.0000 C   0  0  0  0  0  0  0  0  0  0  0  0
    7.2706    6.3029    0.0000 C   0  0  0  0  0  0  0  0  0  0  0  0
   -5.9754   -6.5044    0.0000 O   0  0  0  0  0  0  0  0  0  0  0  0
   -4.8889   -1.1728    0.0000 O   0  0  0  0  0  0  0  0  0  0  0  0
   -3.8024   -0.8060    0.0000 O   0  0  0  0  0  0  0  0  0  0  0  0
   -4.8531   -6.0581    0.0000 O   0  0  0  0  0  0  0  0  0  0  0  0
    0.6225    3.1657    0.0000 C   0  0  0  0  0  0  0  0  0  0  0  0
   -2.8671   -7.8715    0.0000 O   0  0  0  0  0  0  0  0  0  0  0  0
    4.0760    2.6118    0.0000 C   0  0  0  0  0  0  0  0  0  0  0  0
   -3.2488    4.9214    0.0000 C   0  0  0  0  0  0  0  0  0  0  0  0
   -8.7739   -4.5903    0.0000 C   0  0  0  0  0  0  0  0  0  0  0  0
    8.8606    4.2811    0.0000 C   0  0  0  0  0  0  0  0  0  0  0  0
   -7.1338   -2.3601    0.0000 C   0  0  0  0  0  0  0  0  0  0  0  0
   -5.4428    3.3961    0.0000 C   0  0  0  0  0  0  0  0  0  0  0  0
    7.2706    7.1302    0.0000 C   0  0  0  0  0  0  0  0  0  0  0  0
   -4.0399    3.3675    0.0000 C   0  0  0  0  0  0  0  0  0  0  0  0
    7.9758    5.8852    0.0000 C   0  0  0  0  0  0  0  0  0  0  0  0
   -7.1338   -3.8132    0.0000 C   0  0  0  0  0  0  0  0  0  0  0  0
    1.9680    1.5758    0.0000 C   0  0  0  0  0  0  0  0  0  0  0  0
    8.5298    3.3383    0.0000 C   0  0  0  0  0  0  0  0  0  0  0  0
   -9.7384   -4.2306    0.0000 C   0  0  0  0  0  0  0  0  0  0  0  0
   -3.5579    5.8999    0.0000 C   0  0  0  0  0  0  0  0  0  0  0  0
   -3.0903   -0.4099    0.0000 C   0  0  0  0  0  0  0  0  0  0  0  0
   -4.8889   -1.7412    0.0000 C   0  0  0  0  0  0  0  0  0  0  0  0
   -6.6160   -6.9362    0.0000 C   0  0  0  0  0  0  0  0  0  0  0  0
   -4.1984   -5.5905    0.0000 C   0  0  0  0  0  0  0  0  0  0  0  0
   -2.2128   -8.2308    0.0000 C   0  0  0  0  0  0  0  0  0  0  0  0
    1.1551    4.3819    0.0000 O   0  0  0  0  0  0  0  0  0  0  0  0
   -3.1263    2.2663    0.0000 O   0  0  0  0  0  0  0  0  0  0  0  0
   -4.1121   -2.9498    0.0000 O   0  0  0  0  0  0  0  0  0  0  0  0
    4.9033    3.0798    0.0000 C   0  0  0  0  0  0  0  0  0  0  0  0
   -0.0177    2.7988    0.0000 C   0  0  0  0  0  0  0  0  0  0  0  0
    5.6807    7.4035    0.0000 O   0  0  0  0  0  0  0  0  0  0  0  0
    5.7165    5.4179    0.0000 C   0  0  0  0  0  0  0  0  0  0  0  0
    5.7165    4.5043    0.0000 C   0  0  0  0  0  0  0  0  0  0  0  0
    6.5441    7.5259    0.0000 O   0  0  0  0  0  0  0  0  0  0  0  0
   -6.7019   -1.6549    0.0000 O   0  0  0  0  0  0  0  0  0  0  0  0
   -6.1336    3.0220    0.0000 O   0  0  0  0  0  0  0  0  0  0  0  0
   -5.3568   -2.0864    0.0000 O   0  0  0  0  0  0  0  0  0  0  0  0
   -3.3849   -5.8999    0.0000 O   0  0  0  0  0  0  0  0  0  0  0  0
   -2.3489   -0.7554    0.0000 O   0  0  0  0  0  0  0  0  0  0  0  0
   -1.4711   -7.9217    0.0000 O   0  0  0  0  0  0  0  0  0  0  0  0
   -7.4072   -6.6626    0.0000 O   0  0  0  0  0  0  0  0  0  0  0  0
    2.6082    3.5185    0.0000 C   0  0  0  0  0  0  0  0  0  0  0  0
    1.3130    3.5690    0.0000 C   0  0  0  0  0  0  0  0  0  0  0  0
    3.2632    2.2807    0.0000 C   0  0  0  0  0  0  0  0  0  0  0  0
    7.9758    7.5404    0.0000 O   0  0  0  0  0  0  0  0  0  0  0  0
   -7.9466   -2.3601    0.0000 O   0  0  0  0  0  0  0  0  0  0  0  0
   -5.4428    4.1443    0.0000 O   0  0  0  0  0  0  0  0  0  0  0  0
    1.1906    0.7987    0.0000 C   0  0  0  0  0  0  0  0  0  0  0  0
    0.1546    0.6402    0.0000 C   0  0  0  0  0  0  0  0  0  0  0  0
    4.0760    6.4036    0.0000 C   0  0  0  0  0  0  0  0  0  0  0  0
    5.8028    3.4680    0.0000 C   0  0  0  0  0  0  0  0  0  0  0  0
   -2.2774    4.7268    0.0000 C   0  0  0  0  0  0  0  0  0  0  0  0
    9.8391    4.4682    0.0000 C   0  0  0  0  0  0  0  0  0  0  0  0
   -8.6377   -5.5764    0.0000 C   0  0  0  0  0  0  0  0  0  0  0  0
   -3.0758    0.4532    0.0000 C   0  0  0  0  0  0  0  0  0  0  0  0
   -4.4068   -2.0723    0.0000 C   0  0  0  0  0  0  0  0  0  0  0  0
   -4.1984   -4.7274    0.0000 C   0  0  0  0  0  0  0  0  0  0  0  0
   -2.2128   -9.0082    0.0000 C   0  0  0  0  0  0  0  0  0  0  0  0
   -6.6160   -7.7708    0.0000 C   0  0  0  0  0  0  0  0  0  0  0  0
   -2.8815    6.6265    0.0000 C   0  0  0  0  0  0  0  0  0  0  0  0
  -10.5010   -4.8639    0.0000 C   0  0  0  0  0  0  0  0  0  0  0  0
    9.1844    2.5757    0.0000 C   0  0  0  0  0  0  0  0  0  0  0  0
   -6.3065    4.6264    0.0000 C   0  0  0  0  0  0  0  0  0  0  0  0
   -8.4074   -1.4465    0.0000 C   0  0  0  0  0  0  0  0  0  0  0  0
    7.9758    8.5262    0.0000 C   0  0  0  0  0  0  0  0  0  0  0  0
   -9.3928   -1.4104    0.0000 C   0  0  0  0  0  0  0  0  0  0  0  0
   -7.1479    4.1226    0.0000 C   0  0  0  0  0  0  0  0  0  0  0  0
    7.1338    9.0082    0.0000 C   0  0  0  0  0  0  0  0  0  0  0  0
   10.5010    3.6908    0.0000 C   0  0  0  0  0  0  0  0  0  0  0  0
   -9.4145   -6.2166    0.0000 C   0  0  0  0  0  0  0  0  0  0  0  0
   -1.6080    5.4540    0.0000 C   0  0  0  0  0  0  0  0  0  0  0  0
  -10.3284   -5.8497    0.0000 C   0  0  0  0  0  0  0  0  0  0  0  0
   10.1699    2.7844    0.0000 C   0  0  0  0  0  0  0  0  0  0  0  0
   -1.9027    6.4036    0.0000 C   0  0  0  0  0  0  0  0  0  0  0  0
  2  3  1  0  0  0  0
  3  1  1  0  0  0  0
  4 17  1  0  0  0  0
  5 16  1  0  0  0  0
 14  6  1  0  0  0  0
  7 15  1  0  0  0  0
  8  4  1  0  0  0  0
  9  5  1  0  0  0  0
 10  7  1  0  0  0  0
 11 12  1  0  0  0  0
 12 13  1  0  0  0  0
 13 24  1  0  0  0  0
 14 19  1  0  0  0  0
 15 39  1  0  0  0  0
 16 13  1  0  0  0  0
 17 15  1  0  0  0  0
 18  1  2  0  0  0  0
 19 18  1  0  0  0  0
 20  6  1  0  0  0  0
  4 21  1  0  0  0  0
  5 22  1  0  0  0  0
 23  1  1  0  0  0  0
  7 24  1  0  0  0  0
 25 61  1  0  0  0  0
 26 62  1  0  0  0  0
 27 63  1  0  0  0  0
 28 20  1  0  0  0  0
 29 30  1  0  0  0  0
 30 33  1  0  0  0  0
 31 22  1  0  0  0  0
 32 21  1  0  0  0  0
 33 23  1  0  0  0  0
 34 43  1  0  0  0  0
 35 42  1  0  0  0  0
 36 41  1  0  0  0  0
 37 29  1  0  0  0  0
 38 23  1  0  0  0  0
 40 39  1  0  0  0  0
 40 77  1  0  0  0  0
 41 27  2  0  0  0  0
 42 25  2  0  0  0  0
 43 26  2  0  0  0  0
 44  2  1  0  0  0  0
 45 32  1  0  0  0  0
 46 31  1  0  0  0  0
 47 37  1  0  0  0  0
  9 48  1  0  0  0  0
  8 49  1  0  0  0  0
 10 50  1  0  0  0  0
 11 51  1  0  0  0  0
 52  6  1  0  0  0  0
 12 53  1  0  0  0  0
 54  3  1  0  0  0  0
 55 25  1  0  0  0  0
 56 27  1  0  0  0  0
 57 26  1  0  0  0  0
 58 46  1  0  0  0  0
 59 45  1  0  0  0  0
 60 47  1  0  0  0  0
 61 45  1  0  0  0  0
 62 47  1  0  0  0  0
 63 46  1  0  0  0  0
 64 44  1  0  0  0  0
 65 57  2  0  0  0  0
 66 56  2  0  0  0  0
 67 55  2  0  0  0  0
 68 50  1  0  0  0  0
 69 49  1  0  0  0  0
 70 48  1  0  0  0  0
 71 51  1  0  0  0  0
 72 53  1  0  0  0  0
 73 19  2  0  0  0  0
 74 21  2  0  0  0  0
 75 22  2  0  0  0  0
 76 38  1  0  0  0  0
 77 52  1  0  0  0  0
 78 29  2  0  0  0  0
 79 80  1  0  0  0  0
 80 38  1  0  0  0  0
 81 60  2  0  0  0  0
 82 58  2  0  0  0  0
 83 59  2  0  0  0  0
 84 69  2  0  0  0  0
 85 71  2  0  0  0  0
 86 68  2  0  0  0  0
 87 72  2  0  0  0  0
 88 70  2  0  0  0  0
  2 89  1  1  0  0  0
  6 90  1  1  0  0  0
  3 91  1  6  0  0  0
 92 60  1  0  0  0  0
 93 58  1  0  0  0  0
 94 59  1  0  0  0  0
 28 95  1  6  0  0  0
 28 96  1  1  0  0  0
 30 97  1  6  0  0  0
 38 98  1  1  0  0  0
 99 55  1  0  0  0  0
100 57  1  0  0  0  0
101 56  1  0  0  0  0
102 68  1  0  0  0  0
103 69  1  0  0  0  0
104 71  1  0  0  0  0
105 72  1  0  0  0  0
106 70  1  0  0  0  0
107 67  1  0  0  0  0
108 66  1  0  0  0  0
109 65  1  0  0  0  0
110 94  1  0  0  0  0
111 93  1  0  0  0  0
112 92  1  0  0  0  0
113111  1  0  0  0  0
114110  1  0  0  0  0
115112  1  0  0  0  0
116100  2  0  0  0  0
117101  2  0  0  0  0
118 99  2  0  0  0  0
119117  1  0  0  0  0
120116  1  0  0  0  0
121118  1  0  0  0  0
 54 76  1  0  0  0  0
  2 14  1  0  0  0  0
 30 79  1  0  0  0  0
 64 20  1  0  0  0  0
 28 40  1  0  0  0  0
 65 34  1  0  0  0  0
  8 10  1  0  0  0  0
120109  2  0  0  0  0
 11  9  1  0  0  0  0
 35 67  1  0  0  0  0
121107  2  0  0  0  0
 66 36  1  0  0  0  0
119108  2  0  0  0  0
M  END
>  <IDNUMBER> (N016-0018)
N016-0018

>  <available> (N016-0018)
401

>  <H_acceptor> (N016-0018)
24

>  <H_donor> (N016-0018)
6

>  <B_rotN> (N016-0018)
38

>  <N_O> (N016-0018)
30

>  <logP> (N016-0018)
8.3

>  <logD> (N016-0018)
13.28

>  <logSw> (N016-0018)
-13.75

>  <PSA> (N016-0018)
399.06

>  <Chiral_centers> (N016-0018)
22

>  <Name> (N016-0018)
ethyl 2-[(10-{[4,5-bis(acetyloxy)-6-{[1-ethoxy-3-(1H-indol-3-yl)-1-oxopropan-2-yl]carbamoyl}-3-{[3,4,5-tris(acetyloxy)-6-{[1-ethoxy-3-(1H-indol-3-yl)-1-oxopropan-2-yl]carbamoyl}oxan-2-yl]oxy}oxan-2-yl
]oxy}-2,4a,6a,6b,9,9,12a-heptamethyl-13-oxo-1,2,3,4,4a,5,6,6a,6b,7,8,8a,9,10,11,12,12a,12b,13,14b-icosahydropicen-2-yl)formamido]-3-(1H-indol-3-yl)propanoate

>  <Smile> (N016-0018)
c1cc2[nH]cc(CC(NC(C3OC(C(OC4C(C(C(C(O4)C(NC(C(=O)OCC)Cc4c[nH]c5c4cccc5)=O)OC(=O)C)OC(=O)C)OC(=O)C)C(C3OC(=O)C)OC(=O)C)OC3C(C4C(C5C(C)(CC4)C4(C(C6CC(C(NC(C(=O)OCC)Cc7c[nH]c8c7cccc8)=O)(C)CCC6(CC4)C)=CC
5=O)C)(C)CC3)(C)C)=O)C(=O)OCC)c2cc1

>  <Collection> (N016-0018)
DC

>  <CLNUMBER> (N016-0018)
CL1178

>  <InChI Key> (N016-0018)
BBELBBMAOHCYGR-XBUBHNLHSA-N

>  <PERCENTSP3> (N016-0018)
58.2

$$$$

  -ISIS-  -- StrEd -- 

100106  0  0  0  0  0  0  0  0999 V2000
    3.3609    4.2130    0.0000 C   0  0  0  0  0  0  0  0  0  0  0  0
    2.6982    3.0769    0.0000 C   0  0  1  0  0  0  0  0  0  0  0  0
    3.3609    3.4412    0.0000 C   0  0  2  0  0  0  0  0  0  0  0  0
   -3.7831    1.2925    0.0000 C   0  0  0  0  0  0  0  0  0  0  0  0
   -4.8536   -3.9362    0.0000 C   0  0  0  0  0  0  0  0  0  0  0  0
    1.3872    3.0769    0.0000 C   0  0  2  0  0  0  0  0  0  0  0  0
   -1.7730   -1.4168    0.0000 C   0  0  0  0  0  0  0  0  0  0  0  0
   -4.8829   -0.1273    0.0000 C   0  0  0  0  0  0  0  0  0  0  0  0
   -5.9893   -5.3488    0.0000 C   0  0  0  0  0  0  0  0  0  0  0  0
   -3.7831   -1.4168    0.0000 C   0  0  0  0  0  0  0  0  0  0  0  0
   -4.8536   -6.7692    0.0000 C   0  0  0  0  0  0  0  0  0  0  0  0
   -2.8438   -6.7692    0.0000 C   0  0  0  0  0  0  0  0  0  0  0  0
   -1.7952   -5.3488    0.0000 C   0  0  0  0  0  0  0  0  0  0  0  0
    2.0499    3.4412    0.0000 C   0  0  0  0  0  0  0  0  0  0  0  0
   -0.7098   -0.1273    0.0000 C   0  0  0  0  0  0  0  0  0  0  0  0
   -2.8438   -3.9362    0.0000 O   0  0  0  0  0  0  0  0  0  0  0  0
   -1.7730    1.2925    0.0000 O   0  0  0  0  0  0  0  0  0  0  0  0
    2.6982    4.6277    0.0000 C   0  0  0  0  0  0  0  0  0  0  0  0
    2.0499    4.2130    0.0000 C   0  0  0  0  0  0  0  0  0  0  0  0
    1.3872    2.2320    0.0000 C   0  0  0  0  0  0  0  0  0  0  0  0
   -4.8536   -3.2735    0.0000 C   0  0  0  0  0  0  0  0  0  0  0  0
   -3.8049    2.0427    0.0000 C   0  0  0  0  0  0  0  0  0  0  0  0
    4.1836    4.8029    0.0000 C   0  0  0  0  0  0  0  0  0  0  0  0
   -1.7952   -3.3028    0.0000 O   0  0  0  0  0  0  0  0  0  0  0  0
    0.6882    1.8312    0.0000 C   0  0  2  0  0  0  0  0  0  0  0  0
    5.8075    6.7249    0.0000 C   0  0  0  0  0  0  0  0  0  0  0  0
    5.0216    6.2009    0.0000 C   0  0  2  0  0  0  0  0  0  0  0  0
    4.1836    5.7275    0.0000 C   0  0  0  0  0  0  0  0  0  0  0  0
   -4.7301    2.4795    0.0000 N   0  0  0  0  0  0  0  0  0  0  0  0
   -5.8297   -2.9022    0.0000 N   0  0  0  0  0  0  0  0  0  0  0  0
    5.0216    4.3146    0.0000 C   0  0  1  0  0  0  0  0  0  0  0  0
   -0.7098    1.8312    0.0000 O   0  0  0  0  0  0  0  0  0  0  0  0
    0.0401    2.2320    0.0000 C   0  0  0  0  0  0  0  0  0  0  0  0
    6.6527    6.2009    0.0000 N   0  0  0  0  0  0  0  0  0  0  0  0
    2.6982    2.2320    0.0000 C   0  0  0  0  0  0  0  0  0  0  0  0
   -3.7831   -0.5791    0.0000 O   0  0  0  0  0  0  0  0  0  0  0  0
   -4.8536   -5.8950    0.0000 O   0  0  0  0  0  0  0  0  0  0  0  0
   -5.9893   -6.3468    0.0000 O   0  0  0  0  0  0  0  0  0  0  0  0
   -4.8829   -0.9431    0.0000 O   0  0  0  0  0  0  0  0  0  0  0  0
    0.6882    3.4412    0.0000 C   0  0  0  0  0  0  0  0  0  0  0  0
   -2.8438   -7.7300    0.0000 O   0  0  0  0  0  0  0  0  0  0  0  0
    4.1836    2.8801    0.0000 C   0  0  0  0  0  0  0  0  0  0  0  0
    2.0499    1.8312    0.0000 C   0  0  0  0  0  0  0  0  0  0  0  0
   -5.4435    3.6884    0.0000 C   0  0  0  0  0  0  0  0  0  0  0  0
    7.4169    7.4607    0.0000 C   0  0  0  0  0  0  0  0  0  0  0  0
   -7.1551   -2.1520    0.0000 C   0  0  0  0  0  0  0  0  0  0  0  0
   -6.6889   -2.9022    0.0000 C   0  0  0  0  0  0  0  0  0  0  0  0
   -4.7301    3.2660    0.0000 C   0  0  0  0  0  0  0  0  0  0  0  0
    7.4169    6.6233    0.0000 C   0  0  0  0  0  0  0  0  0  0  0  0
   -6.6305   -6.7833    0.0000 C   0  0  0  0  0  0  0  0  0  0  0  0
   -4.1836   -5.4222    0.0000 C   0  0  0  0  0  0  0  0  0  0  0  0
   -2.1739   -8.0943    0.0000 C   0  0  0  0  0  0  0  0  0  0  0  0
   -3.0694   -0.1783    0.0000 C   0  0  0  0  0  0  0  0  0  0  0  0
   -4.8829   -1.5259    0.0000 C   0  0  0  0  0  0  0  0  0  0  0  0
    1.2344    4.6789    0.0000 O   0  0  0  0  0  0  0  0  0  0  0  0
   -4.0965   -2.7494    0.0000 O   0  0  0  0  0  0  0  0  0  0  0  0
   -3.1060    2.5307    0.0000 O   0  0  0  0  0  0  0  0  0  0  0  0
    5.0216    3.3534    0.0000 C   0  0  0  0  0  0  0  0  0  0  0  0
    0.0401    3.0769    0.0000 C   0  0  0  0  0  0  0  0  0  0  0  0
    5.8075    7.7375    0.0000 O   0  0  0  0  0  0  0  0  0  0  0  0
    5.8440    5.7275    0.0000 C   0  0  0  0  0  0  0  0  0  0  0  0
    5.8440    4.8029    0.0000 C   0  0  0  0  0  0  0  0  0  0  0  0
    6.6817    7.8610    0.0000 O   0  0  0  0  0  0  0  0  0  0  0  0
   -6.7180   -1.4384    0.0000 O   0  0  0  0  0  0  0  0  0  0  0  0
   -6.1427    3.3025    0.0000 O   0  0  0  0  0  0  0  0  0  0  0  0
   -3.3678   -5.7347    0.0000 O   0  0  0  0  0  0  0  0  0  0  0  0
   -2.3192   -0.5279    0.0000 O   0  0  0  0  0  0  0  0  0  0  0  0
   -1.4237   -7.7813    0.0000 O   0  0  0  0  0  0  0  0  0  0  0  0
   -7.4391   -6.5071    0.0000 O   0  0  0  0  0  0  0  0  0  0  0  0
   -5.3563   -1.8755    0.0000 O   0  0  0  0  0  0  0  0  0  0  0  0
    2.6982    3.8049    0.0000 C   0  0  0  0  0  0  0  0  0  0  0  0
    1.3872    3.8634    0.0000 C   0  0  0  0  0  0  0  0  0  0  0  0
    3.3609    2.5523    0.0000 C   0  0  0  0  0  0  0  0  0  0  0  0
    8.1381    7.8831    0.0000 O   0  0  0  0  0  0  0  0  0  0  0  0
   -7.9778   -2.1520    0.0000 O   0  0  0  0  0  0  0  0  0  0  0  0
   -5.4435    4.4386    0.0000 O   0  0  0  0  0  0  0  0  0  0  0  0
   -7.1551   -3.6231    0.0000 C   0  0  0  0  0  0  0  0  0  0  0  0
   -4.0308    3.6518    0.0000 C   0  0  0  0  0  0  0  0  0  0  0  0
    8.1381    6.2009    0.0000 C   0  0  0  0  0  0  0  0  0  0  0  0
    9.5873    6.2374    0.0000 S   0  0  0  0  0  0  0  0  0  0  0  0
   -3.3678    4.8392    0.0000 S   0  0  0  0  0  0  0  0  0  0  0  0
    0.2148    0.8919    0.0000 C   0  0  0  0  0  0  0  0  0  0  0  0
    1.2634    1.0447    0.0000 C   0  0  0  0  0  0  0  0  0  0  0  0
   -8.6258   -4.4605    0.0000 S   0  0  0  0  0  0  0  0  0  0  0  0
    4.1836    6.7249    0.0000 C   0  0  0  0  0  0  0  0  0  0  0  0
    5.9315    3.7537    0.0000 C   0  0  0  0  0  0  0  0  0  0  0  0
   -4.1836   -4.5480    0.0000 C   0  0  0  0  0  0  0  0  0  0  0  0
   -2.1739   -8.8808    0.0000 C   0  0  0  0  0  0  0  0  0  0  0  0
   -6.6305   -7.6210    0.0000 C   0  0  0  0  0  0  0  0  0  0  0  0
   -3.0479    0.6951    0.0000 C   0  0  0  0  0  0  0  0  0  0  0  0
   -4.3949   -1.8533    0.0000 C   0  0  0  0  0  0  0  0  0  0  0  0
    8.8371    6.6233    0.0000 C   0  0  0  0  0  0  0  0  0  0  0  0
   -8.1381   -3.6231    0.0000 C   0  0  0  0  0  0  0  0  0  0  0  0
   -4.0308    4.4386    0.0000 C   0  0  0  0  0  0  0  0  0  0  0  0
   -3.3678    5.6256    0.0000 C   0  0  0  0  0  0  0  0  0  0  0  0
    9.5873    5.2251    0.0000 C   0  0  0  0  0  0  0  0  0  0  0  0
   -9.5873   -4.4605    0.0000 C   0  0  0  0  0  0  0  0  0  0  0  0
    8.1381    8.8808    0.0000 C   0  0  0  0  0  0  0  0  0  0  0  0
   -8.4002   -1.4384    0.0000 C   0  0  0  0  0  0  0  0  0  0  0  0
   -6.3537    4.8245    0.0000 C   0  0  0  0  0  0  0  0  0  0  0  0
  2  3  1  0  0  0  0
  3  1  1  0  0  0  0
  4 17  1  0  0  0  0
  5 16  1  0  0  0  0
 14  6  1  0  0  0  0
  7 15  1  0  0  0  0
  8  4  1  0  0  0  0
  9  5  1  0  0  0  0
 10  7  1  0  0  0  0
 11 12  1  0  0  0  0
 12 13  1  0  0  0  0
 13 24  1  0  0  0  0
 14 19  1  0  0  0  0
 15 32  1  0  0  0  0
 16 13  1  0  0  0  0
 17 15  1  0  0  0  0
 18  1  2  0  0  0  0
 19 18  1  0  0  0  0
 20  6  1  0  0  0  0
  5 21  1  0  0  0  0
  4 22  1  0  0  0  0
 23  1  1  0  0  0  0
  7 24  1  0  0  0  0
 25 20  1  0  0  0  0
 26 27  1  0  0  0  0
 27 28  1  0  0  0  0
 28 23  1  0  0  0  0
 29 22  1  0  0  0  0
 30 21  1  0  0  0  0
 31 23  1  0  0  0  0
 33 32  1  0  0  0  0
 33 59  1  0  0  0  0
 34 26  1  0  0  0  0
 35  2  1  0  0  0  0
 10 36  1  0  0  0  0
 11 37  1  0  0  0  0
  9 38  1  0  0  0  0
  8 39  1  0  0  0  0
 40  6  1  0  0  0  0
 12 41  1  0  0  0  0
 42  3  1  0  0  0  0
 43 35  1  0  0  0  0
 48 44  1  0  0  0  0
 49 45  1  0  0  0  0
 47 46  1  0  0  0  0
 47 30  1  0  0  0  0
 48 29  1  0  0  0  0
 49 34  1  0  0  0  0
 50 38  1  0  0  0  0
 51 37  1  0  0  0  0
 52 41  1  0  0  0  0
 53 36  1  0  0  0  0
 54 39  1  0  0  0  0
 55 19  2  0  0  0  0
 56 21  2  0  0  0  0
 57 22  2  0  0  0  0
 58 31  1  0  0  0  0
 59 40  1  0  0  0  0
 60 26  2  0  0  0  0
 61 62  1  0  0  0  0
 62 31  1  0  0  0  0
 63 45  2  0  0  0  0
 64 46  2  0  0  0  0
 65 44  2  0  0  0  0
 66 51  2  0  0  0  0
 67 53  2  0  0  0  0
 68 52  2  0  0  0  0
 69 50  2  0  0  0  0
 70 54  2  0  0  0  0
  2 71  1  1  0  0  0
  6 72  1  1  0  0  0
  3 73  1  6  0  0  0
 74 45  1  0  0  0  0
 75 46  1  0  0  0  0
 76 44  1  0  0  0  0
 77 47  1  0  0  0  0
 78 48  1  0  0  0  0
 79 49  1  0  0  0  0
 80 92  1  0  0  0  0
 81 94  1  0  0  0  0
 25 82  1  1  0  0  0
 25 83  1  6  0  0  0
 84 93  1  0  0  0  0
 27 85  1  6  0  0  0
 31 86  1  1  0  0  0
 87 51  1  0  0  0  0
 88 52  1  0  0  0  0
 89 50  1  0  0  0  0
 90 53  1  0  0  0  0
 91 54  1  0  0  0  0
 92 79  1  0  0  0  0
 93 77  1  0  0  0  0
 94 78  1  0  0  0  0
 95 81  1  0  0  0  0
 96 80  1  0  0  0  0
 97 84  1  0  0  0  0
 98 74  1  0  0  0  0
 99 75  1  0  0  0  0
100 76  1  0  0  0  0
 58 42  1  0  0  0  0
 14  2  1  0  0  0  0
 61 27  1  0  0  0  0
 20 43  1  0  0  0  0
 33 25  1  0  0  0  0
 10  8  1  0  0  0  0
  9 11  1  0  0  0  0
M  END
>  <IDNUMBER> (N016-0020)
N016-0020

>  <available> (N016-0020)
390

>  <H_acceptor> (N016-0020)
27

>  <H_donor> (N016-0020)
3

>  <B_rotN> (N016-0020)
38

>  <N_O> (N016-0020)
27

>  <logP> (N016-0020)
4.36

>  <logD> (N016-0020)
7.76

>  <logSw> (N016-0020)
-10.93

>  <PSA> (N016-0020)
351.69

>  <Chiral_centers> (N016-0020)
22

>  <Name> (N016-0020)
methyl 2-[(10-{[4,5-bis(acetyloxy)-6-{[1-methoxy-4-(methylsulfanyl)-1-oxobutan-2-yl]carbamoyl}-3-{[3,4,5-tris(acetyloxy)-6-{[1-methoxy-4-(methylsulfanyl)-1-oxobutan-2-yl]carbamoyl}oxan-2-yl]oxy}oxan-2
-yl]oxy}-2,4a,6a,6b,9,9,12a-heptamethyl-13-oxo-1,2,3,4,4a,5,6,6a,6b,7,8,8a,9,10,11,12,12a,12b,13,14b-icosahydropicen-2-yl)formamido]-4-(methylsulfanyl)butanoate

>  <Smile> (N016-0020)
COC(C(NC(C1OC(C(OC2C(C(C(C(O2)C(NC(C(=O)OC)CCSC)=O)OC(=O)C)OC(=O)C)OC(=O)C)C(C1OC(=O)C)OC(=O)C)OC1C(C2C(C3C(C)(CC2)C2(C(C4CC(C(NC(C(=O)OC)CCSC)=O)(C)CCC4(CC2)C)=CC3=O)C)(C)CC1)(C)C)=O)CCSC)=O

>  <Collection> (N016-0020)
DC

>  <InChI Key> (N016-0020)
QVMMRINATLSFTK-XASREQHBSA-N

>  <PERCENTSP3> (N016-0020)
80

$$$$

  -ISIS-  -- StrEd -- 

100106  0  0  0  0  0  0  0  0999 V2000
    3.6266    3.9525    0.0000 C   0  0  0  0  0  0  0  0  0  0  0  0
    2.9673    2.8221    0.0000 C   0  0  1  0  0  0  0  0  0  0  0  0
    3.6266    3.1842    0.0000 C   0  0  2  0  0  0  0  0  0  0  0  0
   -3.4885    1.0470    0.0000 C   0  0  0  0  0  0  0  0  0  0  0  0
   -4.5466   -4.1555    0.0000 C   0  0  0  0  0  0  0  0  0  0  0  0
    1.6630    2.8221    0.0000 C   0  0  2  0  0  0  0  0  0  0  0  0
   -1.4889   -1.6485    0.0000 C   0  0  0  0  0  0  0  0  0  0  0  0
   -4.5826   -0.3658    0.0000 C   0  0  0  0  0  0  0  0  0  0  0  0
   -5.6767   -5.5610    0.0000 C   0  0  0  0  0  0  0  0  0  0  0  0
   -3.4885   -1.6485    0.0000 C   0  0  0  0  0  0  0  0  0  0  0  0
   -4.5466   -6.9739    0.0000 C   0  0  0  0  0  0  0  0  0  0  0  0
   -2.5467   -6.9739    0.0000 C   0  0  0  0  0  0  0  0  0  0  0  0
   -1.5031   -5.5610    0.0000 C   0  0  0  0  0  0  0  0  0  0  0  0
    2.3221    3.1842    0.0000 C   0  0  0  0  0  0  0  0  0  0  0  0
   -0.4237   -0.3658    0.0000 C   0  0  0  0  0  0  0  0  0  0  0  0
   -2.5467   -4.1555    0.0000 O   0  0  0  0  0  0  0  0  0  0  0  0
   -1.4889    1.0470    0.0000 O   0  0  0  0  0  0  0  0  0  0  0  0
    2.9673    4.3654    0.0000 C   0  0  0  0  0  0  0  0  0  0  0  0
    2.3221    3.9525    0.0000 C   0  0  0  0  0  0  0  0  0  0  0  0
   -4.5466   -3.4959    0.0000 C   0  0  0  0  0  0  0  0  0  0  0  0
   -3.5030    1.7932    0.0000 C   0  0  0  0  0  0  0  0  0  0  0  0
    1.6630    1.9818    0.0000 C   0  0  0  0  0  0  0  0  0  0  0  0
    4.4454    4.5395    0.0000 C   0  0  0  0  0  0  0  0  0  0  0  0
   -1.5031   -3.5251    0.0000 O   0  0  0  0  0  0  0  0  0  0  0  0
   -4.4232    2.2279    0.0000 N   0  0  0  0  0  0  0  0  0  0  0  0
   -5.5173   -3.1264    0.0000 N   0  0  0  0  0  0  0  0  0  0  0  0
    0.9673    1.5830    0.0000 C   0  0  2  0  0  0  0  0  0  0  0  0
    6.8945    5.9305    0.0000 N   0  0  0  0  0  0  0  0  0  0  0  0
    6.0610    6.4518    0.0000 C   0  0  0  0  0  0  0  0  0  0  0  0
    5.2786    5.9305    0.0000 C   0  0  2  0  0  0  0  0  0  0  0  0
    4.4454    5.4595    0.0000 C   0  0  0  0  0  0  0  0  0  0  0  0
    5.2786    4.0540    0.0000 C   0  0  1  0  0  0  0  0  0  0  0  0
   -0.4237    1.5830    0.0000 O   0  0  0  0  0  0  0  0  0  0  0  0
    0.3227    1.9818    0.0000 C   0  0  0  0  0  0  0  0  0  0  0  0
   -6.3724   -3.1264    0.0000 C   0  0  0  0  0  0  0  0  0  0  0  0
   -4.4232    3.0104    0.0000 C   0  0  0  0  0  0  0  0  0  0  0  0
    7.6625    6.3508    0.0000 C   0  0  0  0  0  0  0  0  0  0  0  0
    2.9673    1.9818    0.0000 C   0  0  0  0  0  0  0  0  0  0  0  0
   -4.5826   -1.1775    0.0000 O   0  0  0  0  0  0  0  0  0  0  0  0
   -3.4885   -0.8153    0.0000 O   0  0  0  0  0  0  0  0  0  0  0  0
   -4.5466   -6.1044    0.0000 O   0  0  0  0  0  0  0  0  0  0  0  0
   -5.6767   -6.5536    0.0000 O   0  0  0  0  0  0  0  0  0  0  0  0
    0.9673    3.1842    0.0000 C   0  0  0  0  0  0  0  0  0  0  0  0
   -2.5467   -7.9305    0.0000 O   0  0  0  0  0  0  0  0  0  0  0  0
    4.4454    2.6267    0.0000 C   0  0  0  0  0  0  0  0  0  0  0  0
   -5.1407    3.4307    0.0000 C   0  0  0  0  0  0  0  0  0  0  0  0
    7.6625    7.1840    0.0000 C   0  0  0  0  0  0  0  0  0  0  0  0
   -6.8434   -2.3802    0.0000 C   0  0  0  0  0  0  0  0  0  0  0  0
    2.3221    1.5830    0.0000 C   0  0  0  0  0  0  0  0  0  0  0  0
   -6.3216   -6.9884    0.0000 C   0  0  0  0  0  0  0  0  0  0  0  0
   -3.8870   -5.6336    0.0000 C   0  0  0  0  0  0  0  0  0  0  0  0
   -1.8876   -8.2923    0.0000 C   0  0  0  0  0  0  0  0  0  0  0  0
   -2.7713   -0.4169    0.0000 C   0  0  0  0  0  0  0  0  0  0  0  0
   -4.5826   -1.7572    0.0000 C   0  0  0  0  0  0  0  0  0  0  0  0
    1.5036    4.4159    0.0000 O   0  0  0  0  0  0  0  0  0  0  0  0
   -3.7999   -2.9743    0.0000 O   0  0  0  0  0  0  0  0  0  0  0  0
   -2.8076    2.2787    0.0000 O   0  0  0  0  0  0  0  0  0  0  0  0
    5.2786    3.0977    0.0000 C   0  0  0  0  0  0  0  0  0  0  0  0
    0.3227    2.8221    0.0000 C   0  0  0  0  0  0  0  0  0  0  0  0
    6.0610    7.4665    0.0000 O   0  0  0  0  0  0  0  0  0  0  0  0
    6.0976    5.4595    0.0000 C   0  0  0  0  0  0  0  0  0  0  0  0
    6.0976    4.5395    0.0000 C   0  0  0  0  0  0  0  0  0  0  0  0
    6.9305    7.5825    0.0000 O   0  0  0  0  0  0  0  0  0  0  0  0
   -6.4087   -1.6701    0.0000 O   0  0  0  0  0  0  0  0  0  0  0  0
   -5.8361    3.0467    0.0000 O   0  0  0  0  0  0  0  0  0  0  0  0
   -3.0685   -5.9450    0.0000 O   0  0  0  0  0  0  0  0  0  0  0  0
   -2.0249   -0.7646    0.0000 O   0  0  0  0  0  0  0  0  0  0  0  0
   -1.1409   -7.9812    0.0000 O   0  0  0  0  0  0  0  0  0  0  0  0
   -7.1185   -6.7130    0.0000 O   0  0  0  0  0  0  0  0  0  0  0  0
   -5.0537   -2.1048    0.0000 O   0  0  0  0  0  0  0  0  0  0  0  0
    2.9673    3.5466    0.0000 C   0  0  0  0  0  0  0  0  0  0  0  0
    1.6630    3.6045    0.0000 C   0  0  0  0  0  0  0  0  0  0  0  0
   -6.8434   -3.8439    0.0000 C   0  0  0  0  0  0  0  0  0  0  0  0
   -3.7276    3.3944    0.0000 C   0  0  0  0  0  0  0  0  0  0  0  0
    8.3723    5.9305    0.0000 C   0  0  0  0  0  0  0  0  0  0  0  0
    3.6266    2.3002    0.0000 C   0  0  0  0  0  0  0  0  0  0  0  0
    8.3723    7.6040    0.0000 O   0  0  0  0  0  0  0  0  0  0  0  0
   -7.6619   -2.3802    0.0000 O   0  0  0  0  0  0  0  0  0  0  0  0
   -5.1407    4.1771    0.0000 O   0  0  0  0  0  0  0  0  0  0  0  0
    0.4963    0.6483    0.0000 C   0  0  0  0  0  0  0  0  0  0  0  0
    1.5399    0.8003    0.0000 C   0  0  0  0  0  0  0  0  0  0  0  0
    4.4454    6.4518    0.0000 C   0  0  0  0  0  0  0  0  0  0  0  0
    6.1841    3.4959    0.0000 C   0  0  0  0  0  0  0  0  0  0  0  0
   -3.8870   -4.7638    0.0000 C   0  0  0  0  0  0  0  0  0  0  0  0
   -1.8876   -9.0750    0.0000 C   0  0  0  0  0  0  0  0  0  0  0  0
   -6.3216   -7.8218    0.0000 C   0  0  0  0  0  0  0  0  0  0  0  0
   -2.7568    0.4529    0.0000 C   0  0  0  0  0  0  0  0  0  0  0  0
   -4.0971   -2.0833    0.0000 C   0  0  0  0  0  0  0  0  0  0  0  0
    9.0680    6.3508    0.0000 C   0  0  0  0  0  0  0  0  0  0  0  0
   -7.8142   -3.8439    0.0000 C   0  0  0  0  0  0  0  0  0  0  0  0
   -3.7276    4.1771    0.0000 C   0  0  0  0  0  0  0  0  0  0  0  0
   -2.8947    2.9091    0.0000 C   0  0  0  0  0  0  0  0  0  0  0  0
   -6.2853   -4.6266    0.0000 C   0  0  0  0  0  0  0  0  0  0  0  0
    8.3941    4.9377    0.0000 C   0  0  0  0  0  0  0  0  0  0  0  0
    8.3723    8.5969    0.0000 C   0  0  0  0  0  0  0  0  0  0  0  0
   -8.0751   -1.6701    0.0000 C   0  0  0  0  0  0  0  0  0  0  0  0
   -6.0392    4.5611    0.0000 C   0  0  0  0  0  0  0  0  0  0  0  0
   -9.0680   -1.6701    0.0000 C   0  0  0  0  0  0  0  0  0  0  0  0
    7.5246    9.0750    0.0000 C   0  0  0  0  0  0  0  0  0  0  0  0
   -6.0244    5.5321    0.0000 C   0  0  0  0  0  0  0  0  0  0  0  0
  2  3  1  0  0  0  0
  3  1  1  0  0  0  0
  4 17  1  0  0  0  0
  5 16  1  0  0  0  0
 14  6  1  0  0  0  0
  7 15  1  0  0  0  0
  8  4  1  0  0  0  0
  9  5  1  0  0  0  0
 10  7  1  0  0  0  0
 11 12  1  0  0  0  0
 12 13  1  0  0  0  0
 13 24  1  0  0  0  0
 14 19  1  0  0  0  0
 15 33  1  0  0  0  0
 16 13  1  0  0  0  0
 17 15  1  0  0  0  0
 18  1  2  0  0  0  0
 19 18  1  0  0  0  0
  5 20  1  0  0  0  0
  4 21  1  0  0  0  0
 22  6  1  0  0  0  0
 23  1  1  0  0  0  0
  7 24  1  0  0  0  0
 25 21  1  0  0  0  0
 26 20  1  0  0  0  0
 27 22  1  0  0  0  0
 28 29  1  0  0  0  0
 29 30  1  0  0  0  0
 30 31  1  0  0  0  0
 31 23  1  0  0  0  0
 32 23  1  0  0  0  0
 34 33  1  0  0  0  0
 34 59  1  0  0  0  0
 35 26  1  0  0  0  0
 36 25  1  0  0  0  0
 37 28  1  0  0  0  0
 38  2  1  0  0  0  0
  8 39  1  0  0  0  0
 10 40  1  0  0  0  0
 11 41  1  0  0  0  0
  9 42  1  0  0  0  0
 43  6  1  0  0  0  0
 12 44  1  0  0  0  0
 45  3  1  0  0  0  0
 46 36  1  0  0  0  0
 47 37  1  0  0  0  0
 48 35  1  0  0  0  0
 49 38  1  0  0  0  0
 50 42  1  0  0  0  0
 51 41  1  0  0  0  0
 52 44  1  0  0  0  0
 53 40  1  0  0  0  0
 54 39  1  0  0  0  0
 55 19  2  0  0  0  0
 56 20  2  0  0  0  0
 57 21  2  0  0  0  0
 58 32  1  0  0  0  0
 59 43  1  0  0  0  0
 60 29  2  0  0  0  0
 61 62  1  0  0  0  0
 62 32  1  0  0  0  0
 63 47  2  0  0  0  0
 64 48  2  0  0  0  0
 65 46  2  0  0  0  0
 66 51  2  0  0  0  0
 67 53  2  0  0  0  0
 68 52  2  0  0  0  0
 69 50  2  0  0  0  0
 70 54  2  0  0  0  0
  2 71  1  1  0  0  0
  6 72  1  1  0  0  0
 73 35  1  0  0  0  0
 74 36  1  0  0  0  0
 75 37  1  0  0  0  0
  3 76  1  6  0  0  0
 77 47  1  0  0  0  0
 78 48  1  0  0  0  0
 79 46  1  0  0  0  0
 27 80  1  1  0  0  0
 27 81  1  6  0  0  0
 30 82  1  6  0  0  0
 32 83  1  1  0  0  0
 84 51  1  0  0  0  0
 85 52  1  0  0  0  0
 86 50  1  0  0  0  0
 87 53  1  0  0  0  0
 88 54  1  0  0  0  0
 89 75  1  0  0  0  0
 90 73  1  0  0  0  0
 91 74  1  0  0  0  0
 92 74  1  0  0  0  0
 93 73  1  0  0  0  0
 94 75  1  0  0  0  0
 95 77  1  0  0  0  0
 96 78  1  0  0  0  0
 97 79  1  0  0  0  0
 98 96  1  0  0  0  0
 99 95  1  0  0  0  0
100 97  1  0  0  0  0
 45 58  1  0  0  0  0
  2 14  1  0  0  0  0
 30 61  1  0  0  0  0
 49 22  1  0  0  0  0
 27 34  1  0  0  0  0
  8 10  1  0  0  0  0
 11  9  1  0  0  0  0
M  END
>  <IDNUMBER> (N016-0021)
N016-0021

>  <available> (N016-0021)
298

>  <H_acceptor> (N016-0021)
24

>  <H_donor> (N016-0021)
3

>  <B_rotN> (N016-0021)
35

>  <N_O> (N016-0021)
27

>  <logP> (N016-0021)
6.95

>  <logD> (N016-0021)
9.98

>  <logSw> (N016-0021)
-11.4

>  <PSA> (N016-0021)
351.69

>  <Chiral_centers> (N016-0021)
22

>  <Name> (N016-0021)
ethyl 2-[(10-{[4,5-bis(acetyloxy)-6-[(1-ethoxy-3-methyl-1-oxobutan-2-yl)carbamoyl]-3-{[3,4,5-tris(acetyloxy)-6-[(1-ethoxy-3-methyl-1-oxobutan-2-yl)carbamoyl]oxan-2-yl]oxy}oxan-2-yl]oxy}-2,4a,6a,6b,9,9
,12a-heptamethyl-13-oxo-1,2,3,4,4a,5,6,6a,6b,7,8,8a,9,10,11,12,12a,12b,13,14b-icosahydropicen-2-yl)formamido]-3-methylbutanoate

>  <Smile> (N016-0021)
CCOC(C(NC(C1OC(C(OC2C(C(C(C(O2)C(NC(C(=O)OCC)C(C)C)=O)OC(=O)C)OC(=O)C)OC(=O)C)C(C1OC(=O)C)OC(=O)C)OC1C(C2C(C3C(C)(CC2)C2(C(C4CC(C(NC(C(=O)OCC)C(C)C)=O)(C)CCC4(CC2)C)=CC3=O)C)(C)CC1)(C)C)=O)C(C)C)=O

>  <Collection> (N016-0021)
DC

>  <InChI Key> (N016-0021)
WAGJCDMGPOWSLM-SWWQPMCSSA-N

>  <PERCENTSP3> (N016-0021)
80.8

$$$$

  -ISIS-  -- StrEd -- 

103109  0  0  0  0  0  0  0  0999 V2000
    3.4927    3.9123    0.0000 C   0  0  0  0  0  0  0  0  0  0  0  0
    2.8403    2.7932    0.0000 C   0  0  1  0  0  0  0  0  0  0  0  0
    3.4927    3.1519    0.0000 C   0  0  2  0  0  0  0  0  0  0  0  0
   -3.5500    1.0363    0.0000 C   0  0  0  0  0  0  0  0  0  0  0  0
   -4.5973   -4.1133    0.0000 C   0  0  0  0  0  0  0  0  0  0  0  0
    1.5492    2.7932    0.0000 C   0  0  2  0  0  0  0  0  0  0  0  0
   -1.5704   -1.6319    0.0000 C   0  0  0  0  0  0  0  0  0  0  0  0
   -4.6330   -0.3621    0.0000 C   0  0  0  0  0  0  0  0  0  0  0  0
   -5.7160   -5.5045    0.0000 C   0  0  0  0  0  0  0  0  0  0  0  0
   -3.5500   -1.6319    0.0000 C   0  0  0  0  0  0  0  0  0  0  0  0
   -4.5973   -6.9031    0.0000 C   0  0  0  0  0  0  0  0  0  0  0  0
   -2.6177   -6.9031    0.0000 C   0  0  0  0  0  0  0  0  0  0  0  0
   -1.5849   -5.5045    0.0000 C   0  0  0  0  0  0  0  0  0  0  0  0
    2.2018    3.1519    0.0000 C   0  0  0  0  0  0  0  0  0  0  0  0
   -0.5163   -0.3621    0.0000 C   0  0  0  0  0  0  0  0  0  0  0  0
   -2.6177   -4.1133    0.0000 O   0  0  0  0  0  0  0  0  0  0  0  0
   -1.5704    1.0363    0.0000 O   0  0  0  0  0  0  0  0  0  0  0  0
    2.8403    4.3208    0.0000 C   0  0  0  0  0  0  0  0  0  0  0  0
    2.2018    3.9123    0.0000 C   0  0  0  0  0  0  0  0  0  0  0  0
    1.5492    1.9617    0.0000 C   0  0  0  0  0  0  0  0  0  0  0  0
   -3.5644    1.7751    0.0000 C   0  0  0  0  0  0  0  0  0  0  0  0
   -4.5973   -3.4604    0.0000 C   0  0  0  0  0  0  0  0  0  0  0  0
    4.3035    4.4932    0.0000 C   0  0  0  0  0  0  0  0  0  0  0  0
   -1.5849   -3.4893    0.0000 O   0  0  0  0  0  0  0  0  0  0  0  0
    0.8608    1.5670    0.0000 C   0  0  2  0  0  0  0  0  0  0  0  0
    5.9026    6.3863    0.0000 C   0  0  0  0  0  0  0  0  0  0  0  0
    5.1280    5.8703    0.0000 C   0  0  2  0  0  0  0  0  0  0  0  0
   -5.5581   -3.0946    0.0000 N   0  0  0  0  0  0  0  0  0  0  0  0
   -4.4751    2.2052    0.0000 N   0  0  0  0  0  0  0  0  0  0  0  0
    4.3035    5.4039    0.0000 C   0  0  0  0  0  0  0  0  0  0  0  0
    6.7276    5.8703    0.0000 N   0  0  0  0  0  0  0  0  0  0  0  0
    5.1280    4.0129    0.0000 C   0  0  1  0  0  0  0  0  0  0  0  0
   -0.5163    1.5670    0.0000 O   0  0  0  0  0  0  0  0  0  0  0  0
    0.2223    1.9617    0.0000 C   0  0  0  0  0  0  0  0  0  0  0  0
    2.8403    1.9617    0.0000 C   0  0  0  0  0  0  0  0  0  0  0  0
   -4.4751    2.9798    0.0000 C   0  0  0  0  0  0  0  0  0  0  0  0
   -6.4044   -3.0946    0.0000 C   0  0  0  0  0  0  0  0  0  0  0  0
    7.4878    6.2862    0.0000 C   0  0  0  0  0  0  0  0  0  0  0  0
   -4.6330   -1.1655    0.0000 O   0  0  0  0  0  0  0  0  0  0  0  0
   -3.5500   -0.8069    0.0000 O   0  0  0  0  0  0  0  0  0  0  0  0
   -4.5973   -6.0424    0.0000 O   0  0  0  0  0  0  0  0  0  0  0  0
   -5.7160   -6.4872    0.0000 O   0  0  0  0  0  0  0  0  0  0  0  0
    0.8608    3.1519    0.0000 C   0  0  0  0  0  0  0  0  0  0  0  0
   -2.6177   -7.8498    0.0000 O   0  0  0  0  0  0  0  0  0  0  0  0
    4.3035    2.5999    0.0000 C   0  0  0  0  0  0  0  0  0  0  0  0
   -5.1853    3.3960    0.0000 C   0  0  0  0  0  0  0  0  0  0  0  0
    7.4878    7.1112    0.0000 C   0  0  0  0  0  0  0  0  0  0  0  0
   -6.8708   -2.3560    0.0000 C   0  0  0  0  0  0  0  0  0  0  0  0
    2.2018    1.5670    0.0000 C   0  0  0  0  0  0  0  0  0  0  0  0
   -6.3542   -6.9173    0.0000 C   0  0  0  0  0  0  0  0  0  0  0  0
   -3.9443   -5.5766    0.0000 C   0  0  0  0  0  0  0  0  0  0  0  0
   -1.9651   -8.2082    0.0000 C   0  0  0  0  0  0  0  0  0  0  0  0
   -2.8400   -0.4125    0.0000 C   0  0  0  0  0  0  0  0  0  0  0  0
   -4.6330   -1.7394    0.0000 C   0  0  0  0  0  0  0  0  0  0  0  0
    1.3915    4.3710    0.0000 O   0  0  0  0  0  0  0  0  0  0  0  0
   -3.8581   -2.9444    0.0000 O   0  0  0  0  0  0  0  0  0  0  0  0
   -2.8760    2.2554    0.0000 O   0  0  0  0  0  0  0  0  0  0  0  0
    5.1280    3.0660    0.0000 C   0  0  0  0  0  0  0  0  0  0  0  0
    0.2223    2.7932    0.0000 C   0  0  0  0  0  0  0  0  0  0  0  0
    5.9026    7.3908    0.0000 O   0  0  0  0  0  0  0  0  0  0  0  0
    5.9386    5.4039    0.0000 C   0  0  0  0  0  0  0  0  0  0  0  0
    5.9386    4.4932    0.0000 C   0  0  0  0  0  0  0  0  0  0  0  0
    6.7634    7.5053    0.0000 O   0  0  0  0  0  0  0  0  0  0  0  0
   -6.4404   -1.6532    0.0000 O   0  0  0  0  0  0  0  0  0  0  0  0
   -5.8737    3.0158    0.0000 O   0  0  0  0  0  0  0  0  0  0  0  0
   -6.8708   -3.8048    0.0000 C   0  0  0  0  0  0  0  0  0  0  0  0
   -3.5644    3.5681    0.0000 C   0  0  0  0  0  0  0  0  0  0  0  0
    8.1903    5.8703    0.0000 C   0  0  0  0  0  0  0  0  0  0  0  0
   -7.1433   -6.6449    0.0000 O   0  0  0  0  0  0  0  0  0  0  0  0
   -5.0991   -2.0833    0.0000 O   0  0  0  0  0  0  0  0  0  0  0  0
   -3.1340   -5.8845    0.0000 O   0  0  0  0  0  0  0  0  0  0  0  0
   -2.1012   -0.7567    0.0000 O   0  0  0  0  0  0  0  0  0  0  0  0
   -1.2262   -7.9000    0.0000 O   0  0  0  0  0  0  0  0  0  0  0  0
    2.8403    3.5105    0.0000 C   0  0  0  0  0  0  0  0  0  0  0  0
    1.5492    3.5681    0.0000 C   0  0  0  0  0  0  0  0  0  0  0  0
    3.4927    2.2769    0.0000 C   0  0  0  0  0  0  0  0  0  0  0  0
    8.1903    7.5269    0.0000 O   0  0  0  0  0  0  0  0  0  0  0  0
   -7.6811   -2.3560    0.0000 O   0  0  0  0  0  0  0  0  0  0  0  0
   -5.1853    4.1346    0.0000 O   0  0  0  0  0  0  0  0  0  0  0  0
    0.3944    0.6416    0.0000 C   0  0  0  0  0  0  0  0  0  0  0  0
    1.4275    0.7924    0.0000 C   0  0  0  0  0  0  0  0  0  0  0  0
    4.3035    6.3863    0.0000 C   0  0  0  0  0  0  0  0  0  0  0  0
    6.0245    3.4604    0.0000 C   0  0  0  0  0  0  0  0  0  0  0  0
   -7.8317   -3.8048    0.0000 C   0  0  0  0  0  0  0  0  0  0  0  0
   -3.5644    4.7013    0.0000 C   0  0  0  0  0  0  0  0  0  0  0  0
    8.2121    4.8876    0.0000 C   0  0  0  0  0  0  0  0  0  0  0  0
   -2.8258    0.4482    0.0000 C   0  0  0  0  0  0  0  0  0  0  0  0
   -4.1524   -2.0620    0.0000 C   0  0  0  0  0  0  0  0  0  0  0  0
   -3.9443   -4.7155    0.0000 C   0  0  0  0  0  0  0  0  0  0  0  0
   -1.9651   -8.9828    0.0000 C   0  0  0  0  0  0  0  0  0  0  0  0
   -6.3542   -7.7424    0.0000 C   0  0  0  0  0  0  0  0  0  0  0  0
    8.1903    8.5096    0.0000 C   0  0  0  0  0  0  0  0  0  0  0  0
   -8.0900   -1.6532    0.0000 C   0  0  0  0  0  0  0  0  0  0  0  0
   -6.0747    4.5148    0.0000 C   0  0  0  0  0  0  0  0  0  0  0  0
   -4.4396    5.2675    0.0000 C   0  0  0  0  0  0  0  0  0  0  0  0
   -2.4814    5.1314    0.0000 C   0  0  0  0  0  0  0  0  0  0  0  0
    9.0726    4.4286    0.0000 C   0  0  0  0  0  0  0  0  0  0  0  0
    7.3656    4.3710    0.0000 C   0  0  0  0  0  0  0  0  0  0  0  0
   -8.3335   -4.6441    0.0000 C   0  0  0  0  0  0  0  0  0  0  0  0
   -8.2981   -2.9444    0.0000 C   0  0  0  0  0  0  0  0  0  0  0  0
   -9.0726   -1.6532    0.0000 C   0  0  0  0  0  0  0  0  0  0  0  0
    7.3511    8.9828    0.0000 C   0  0  0  0  0  0  0  0  0  0  0  0
   -6.0602    5.4759    0.0000 C   0  0  0  0  0  0  0  0  0  0  0  0
  2  3  1  0  0  0  0
  3  1  1  0  0  0  0
  4 17  1  0  0  0  0
  5 16  1  0  0  0  0
 14  6  1  0  0  0  0
  7 15  1  0  0  0  0
  8  4  1  0  0  0  0
  9  5  1  0  0  0  0
 10  7  1  0  0  0  0
 11 12  1  0  0  0  0
 12 13  1  0  0  0  0
 13 24  1  0  0  0  0
 14 19  1  0  0  0  0
 15 33  1  0  0  0  0
 16 13  1  0  0  0  0
 17 15  1  0  0  0  0
 18  1  2  0  0  0  0
 19 18  1  0  0  0  0
 20  6  1  0  0  0  0
  4 21  1  0  0  0  0
  5 22  1  0  0  0  0
 23  1  1  0  0  0  0
  7 24  1  0  0  0  0
 25 20  1  0  0  0  0
 26 27  1  0  0  0  0
 27 30  1  0  0  0  0
 28 22  1  0  0  0  0
 29 21  1  0  0  0  0
 30 23  1  0  0  0  0
 31 26  1  0  0  0  0
 32 23  1  0  0  0  0
 34 33  1  0  0  0  0
 34 59  1  0  0  0  0
 35  2  1  0  0  0  0
 36 29  1  0  0  0  0
 37 28  1  0  0  0  0
 38 31  1  0  0  0  0
  8 39  1  0  0  0  0
 10 40  1  0  0  0  0
 11 41  1  0  0  0  0
  9 42  1  0  0  0  0
 43  6  1  0  0  0  0
 12 44  1  0  0  0  0
 45  3  1  0  0  0  0
 46 36  1  0  0  0  0
 47 38  1  0  0  0  0
 48 37  1  0  0  0  0
 49 35  1  0  0  0  0
 50 42  1  0  0  0  0
 51 41  1  0  0  0  0
 52 44  1  0  0  0  0
 53 40  1  0  0  0  0
 54 39  1  0  0  0  0
 55 19  2  0  0  0  0
 56 22  2  0  0  0  0
 57 21  2  0  0  0  0
 58 32  1  0  0  0  0
 59 43  1  0  0  0  0
 60 26  2  0  0  0  0
 61 62  1  0  0  0  0
 62 32  1  0  0  0  0
 63 47  2  0  0  0  0
 64 48  2  0  0  0  0
 65 46  2  0  0  0  0
 66 37  1  0  0  0  0
 67 36  1  0  0  0  0
 68 38  1  0  0  0  0
 69 50  2  0  0  0  0
 70 54  2  0  0  0  0
 71 51  2  0  0  0  0
 72 53  2  0  0  0  0
 73 52  2  0  0  0  0
  2 74  1  1  0  0  0
  6 75  1  1  0  0  0
  3 76  1  6  0  0  0
 77 47  1  0  0  0  0
 78 48  1  0  0  0  0
 79 46  1  0  0  0  0
 25 80  1  1  0  0  0
 25 81  1  6  0  0  0
 27 82  1  6  0  0  0
 32 83  1  1  0  0  0
 84 66  1  0  0  0  0
 85 67  1  0  0  0  0
 86 68  1  0  0  0  0
 87 53  1  0  0  0  0
 88 54  1  0  0  0  0
 89 51  1  0  0  0  0
 90 52  1  0  0  0  0
 91 50  1  0  0  0  0
 92 77  1  0  0  0  0
 93 78  1  0  0  0  0
 94 79  1  0  0  0  0
 95 85  1  0  0  0  0
 96 85  1  0  0  0  0
 97 86  1  0  0  0  0
 98 86  1  0  0  0  0
 99 84  1  0  0  0  0
100 84  1  0  0  0  0
101 93  1  0  0  0  0
102 92  1  0  0  0  0
103 94  1  0  0  0  0
 45 58  1  0  0  0  0
  2 14  1  0  0  0  0
 27 61  1  0  0  0  0
 49 20  1  0  0  0  0
 25 34  1  0  0  0  0
  8 10  1  0  0  0  0
 11  9  1  0  0  0  0
M  END
>  <IDNUMBER> (N016-0023)
N016-0023

>  <available> (N016-0023)
432

>  <H_acceptor> (N016-0023)
24

>  <H_donor> (N016-0023)
3

>  <B_rotN> (N016-0023)
38

>  <N_O> (N016-0023)
27

>  <logP> (N016-0023)
8.12

>  <logD> (N016-0023)
11.35

>  <logSw> (N016-0023)
-12.07

>  <PSA> (N016-0023)
351.69

>  <Chiral_centers> (N016-0023)
22

>  <Name> (N016-0023)
ethyl 2-[(10-{[4,5-bis(acetyloxy)-6-[(1-ethoxy-4-methyl-1-oxopentan-2-yl)carbamoyl]-3-{[3,4,5-tris(acetyloxy)-6-[(1-ethoxy-4-methyl-1-oxopentan-2-yl)carbamoyl]oxan-2-yl]oxy}oxan-2-yl]oxy}-2,4a,6a,6b,9
,9,12a-heptamethyl-13-oxo-1,2,3,4,4a,5,6,6a,6b,7,8,8a,9,10,11,12,12a,12b,13,14b-icosahydropicen-2-yl)formamido]-4-methylpentanoate

>  <Smile> (N016-0023)
CCOC(C(NC(C1OC(C(OC2C(C(C(C(O2)C(NC(C(=O)OCC)CC(C)C)=O)OC(=O)C)OC(=O)C)OC(=O)C)C(C1OC(=O)C)OC(=O)C)OC1C(C2C(C3C(C)(CC2)C2(C(C4CC(C(NC(C(=O)OCC)CC(C)C)=O)(C)CCC4(CC2)C)=CC3=O)C)(C)CC1)(C)C)=O)CC(C)C)=O

>  <Collection> (N016-0023)
DC

>  <InChI Key> (N016-0023)
FQXTUFIGGCDDBD-WXLFHPQWSA-N

>  <PERCENTSP3> (N016-0023)
81.6

$$$$

  -ISIS-  -- StrEd -- 

 97103  0  0  0  0  0  0  0  0999 V2000
    3.5424    3.9356    0.0000 C   0  0  0  0  0  0  0  0  0  0  0  0
    2.8859    2.8100    0.0000 C   0  0  1  0  0  0  0  0  0  0  0  0
    3.5424    3.1705    0.0000 C   0  0  2  0  0  0  0  0  0  0  0  0
   -3.5421    1.0425    0.0000 C   0  0  0  0  0  0  0  0  0  0  0  0
   -4.5957   -4.1377    0.0000 C   0  0  0  0  0  0  0  0  0  0  0  0
    1.5872    2.8100    0.0000 C   0  0  2  0  0  0  0  0  0  0  0  0
   -1.5511   -1.6415    0.0000 C   0  0  0  0  0  0  0  0  0  0  0  0
   -4.6315   -0.3642    0.0000 C   0  0  0  0  0  0  0  0  0  0  0  0
   -5.7210   -5.5370    0.0000 C   0  0  0  0  0  0  0  0  0  0  0  0
   -3.5421   -1.6415    0.0000 C   0  0  0  0  0  0  0  0  0  0  0  0
   -4.5957   -6.9440    0.0000 C   0  0  0  0  0  0  0  0  0  0  0  0
   -2.6045   -6.9440    0.0000 C   0  0  0  0  0  0  0  0  0  0  0  0
   -1.5654   -5.5370    0.0000 C   0  0  0  0  0  0  0  0  0  0  0  0
    2.2437    3.1705    0.0000 C   0  0  0  0  0  0  0  0  0  0  0  0
   -0.4904   -0.3642    0.0000 C   0  0  0  0  0  0  0  0  0  0  0  0
   -2.6045   -4.1377    0.0000 O   0  0  0  0  0  0  0  0  0  0  0  0
   -1.5511    1.0425    0.0000 O   0  0  0  0  0  0  0  0  0  0  0  0
    2.8859    4.3464    0.0000 C   0  0  0  0  0  0  0  0  0  0  0  0
    2.2437    3.9356    0.0000 C   0  0  0  0  0  0  0  0  0  0  0  0
    1.5872    1.9733    0.0000 C   0  0  0  0  0  0  0  0  0  0  0  0
   -3.5566    1.7854    0.0000 C   0  0  0  0  0  0  0  0  0  0  0  0
   -4.5957   -3.4810    0.0000 C   0  0  0  0  0  0  0  0  0  0  0  0
    4.3577    4.5198    0.0000 C   0  0  0  0  0  0  0  0  0  0  0  0
   -1.5654   -3.5100    0.0000 O   0  0  0  0  0  0  0  0  0  0  0  0
    0.8947    1.5762    0.0000 C   0  0  2  0  0  0  0  0  0  0  0  0
    5.9666    6.4243    0.0000 C   0  0  0  0  0  0  0  0  0  0  0  0
    5.1873    5.9052    0.0000 C   0  0  2  0  0  0  0  0  0  0  0  0
   -4.4729    2.2184    0.0000 N   0  0  0  0  0  0  0  0  0  0  0  0
   -5.5623   -3.1131    0.0000 N   0  0  0  0  0  0  0  0  0  0  0  0
    6.7962    5.9052    0.0000 N   0  0  0  0  0  0  0  0  0  0  0  0
    4.3577    5.4361    0.0000 C   0  0  0  0  0  0  0  0  0  0  0  0
   -6.4138   -3.1131    0.0000 C   0  0  0  0  0  0  0  0  0  0  0  0
   -4.4729    2.9977    0.0000 C   0  0  0  0  0  0  0  0  0  0  0  0
    7.5609    6.3234    0.0000 C   0  0  0  0  0  0  0  0  0  0  0  0
    5.1873    4.0365    0.0000 C   0  0  1  0  0  0  0  0  0  0  0  0
   -0.4904    1.5762    0.0000 O   0  0  0  0  0  0  0  0  0  0  0  0
    0.2525    1.9733    0.0000 C   0  0  0  0  0  0  0  0  0  0  0  0
    2.8859    1.9733    0.0000 C   0  0  0  0  0  0  0  0  0  0  0  0
    7.5609    7.1533    0.0000 C   0  0  0  0  0  0  0  0  0  0  0  0
   -6.8826   -2.3699    0.0000 C   0  0  0  0  0  0  0  0  0  0  0  0
   -5.1873    3.4161    0.0000 C   0  0  0  0  0  0  0  0  0  0  0  0
   -4.5957   -6.0780    0.0000 O   0  0  0  0  0  0  0  0  0  0  0  0
   -5.7210   -6.5255    0.0000 O   0  0  0  0  0  0  0  0  0  0  0  0
   -4.6315   -1.1725    0.0000 O   0  0  0  0  0  0  0  0  0  0  0  0
   -3.5421   -0.8117    0.0000 O   0  0  0  0  0  0  0  0  0  0  0  0
    0.8947    3.1705    0.0000 C   0  0  0  0  0  0  0  0  0  0  0  0
   -2.6045   -7.8964    0.0000 O   0  0  0  0  0  0  0  0  0  0  0  0
    4.3577    2.6153    0.0000 C   0  0  0  0  0  0  0  0  0  0  0  0
    2.2437    1.5762    0.0000 C   0  0  0  0  0  0  0  0  0  0  0  0
   -6.3632   -6.9585    0.0000 C   0  0  0  0  0  0  0  0  0  0  0  0
   -3.9390   -5.6095    0.0000 C   0  0  0  0  0  0  0  0  0  0  0  0
   -1.9480   -8.2569    0.0000 C   0  0  0  0  0  0  0  0  0  0  0  0
   -2.8279   -0.4151    0.0000 C   0  0  0  0  0  0  0  0  0  0  0  0
   -4.6315   -1.7496    0.0000 C   0  0  0  0  0  0  0  0  0  0  0  0
    1.4286    4.3970    0.0000 O   0  0  0  0  0  0  0  0  0  0  0  0
   -2.8640    2.2687    0.0000 O   0  0  0  0  0  0  0  0  0  0  0  0
   -3.8523   -2.9618    0.0000 O   0  0  0  0  0  0  0  0  0  0  0  0
    5.1873    3.0844    0.0000 C   0  0  0  0  0  0  0  0  0  0  0  0
    0.2525    2.8100    0.0000 C   0  0  0  0  0  0  0  0  0  0  0  0
    5.9666    7.4347    0.0000 O   0  0  0  0  0  0  0  0  0  0  0  0
    6.0027    5.4361    0.0000 C   0  0  0  0  0  0  0  0  0  0  0  0
    6.0027    4.5198    0.0000 C   0  0  0  0  0  0  0  0  0  0  0  0
    6.8320    7.5499    0.0000 O   0  0  0  0  0  0  0  0  0  0  0  0
   -6.4499   -1.6629    0.0000 O   0  0  0  0  0  0  0  0  0  0  0  0
   -5.8799    3.0338    0.0000 O   0  0  0  0  0  0  0  0  0  0  0  0
   -2.0848   -0.7611    0.0000 O   0  0  0  0  0  0  0  0  0  0  0  0
   -1.2046   -7.9470    0.0000 O   0  0  0  0  0  0  0  0  0  0  0  0
   -7.1567   -6.6842    0.0000 O   0  0  0  0  0  0  0  0  0  0  0  0
   -5.1006   -2.0959    0.0000 O   0  0  0  0  0  0  0  0  0  0  0  0
   -3.1239   -5.9194    0.0000 O   0  0  0  0  0  0  0  0  0  0  0  0
    2.8859    3.5313    0.0000 C   0  0  0  0  0  0  0  0  0  0  0  0
    1.5872    3.5890    0.0000 C   0  0  0  0  0  0  0  0  0  0  0  0
    3.5424    2.2903    0.0000 C   0  0  0  0  0  0  0  0  0  0  0  0
    8.2677    7.5715    0.0000 O   0  0  0  0  0  0  0  0  0  0  0  0
   -7.6977   -2.3699    0.0000 O   0  0  0  0  0  0  0  0  0  0  0  0
   -5.1873    4.1593    0.0000 O   0  0  0  0  0  0  0  0  0  0  0  0
    0.4256    0.6454    0.0000 C   0  0  0  0  0  0  0  0  0  0  0  0
    1.4647    0.7969    0.0000 C   0  0  0  0  0  0  0  0  0  0  0  0
   -3.7803    3.3798    0.0000 C   0  0  0  0  0  0  0  0  0  0  0  0
    8.2677    5.9052    0.0000 C   0  0  0  0  0  0  0  0  0  0  0  0
   -6.8826   -3.8275    0.0000 C   0  0  0  0  0  0  0  0  0  0  0  0
    4.3577    6.4243    0.0000 C   0  0  0  0  0  0  0  0  0  0  0  0
    6.0891    3.4810    0.0000 C   0  0  0  0  0  0  0  0  0  0  0  0
    8.2896    4.9167    0.0000 O   0  0  0  0  0  0  0  0  0  0  0  0
   -7.8492   -3.8275    0.0000 O   0  0  0  0  0  0  0  0  0  0  0  0
   -3.7803    4.1593    0.0000 O   0  0  0  0  0  0  0  0  0  0  0  0
   -6.3632   -7.7881    0.0000 C   0  0  0  0  0  0  0  0  0  0  0  0
   -2.8137    0.4509    0.0000 C   0  0  0  0  0  0  0  0  0  0  0  0
   -4.1482   -2.0742    0.0000 C   0  0  0  0  0  0  0  0  0  0  0  0
   -3.9390   -4.7435    0.0000 C   0  0  0  0  0  0  0  0  0  0  0  0
   -1.9480   -9.0362    0.0000 C   0  0  0  0  0  0  0  0  0  0  0  0
   -6.0530    4.6426    0.0000 C   0  0  0  0  0  0  0  0  0  0  0  0
   -8.1668   -1.4536    0.0000 C   0  0  0  0  0  0  0  0  0  0  0  0
    8.2677    8.5600    0.0000 C   0  0  0  0  0  0  0  0  0  0  0  0
   -9.0976   -1.4536    0.0000 C   0  0  0  0  0  0  0  0  0  0  0  0
   -6.0530    5.6311    0.0000 C   0  0  0  0  0  0  0  0  0  0  0  0
    9.0976    9.0362    0.0000 C   0  0  0  0  0  0  0  0  0  0  0  0
  2  3  1  0  0  0  0
  3  1  1  0  0  0  0
  4 17  1  0  0  0  0
  5 16  1  0  0  0  0
 14  6  1  0  0  0  0
  7 15  1  0  0  0  0
  8  4  1  0  0  0  0
  9  5  1  0  0  0  0
 10  7  1  0  0  0  0
 11 12  1  0  0  0  0
 12 13  1  0  0  0  0
 13 24  1  0  0  0  0
 14 19  1  0  0  0  0
 15 36  1  0  0  0  0
 16 13  1  0  0  0  0
 17 15  1  0  0  0  0
 18  1  2  0  0  0  0
 19 18  1  0  0  0  0
 20  6  1  0  0  0  0
  4 21  1  0  0  0  0
  5 22  1  0  0  0  0
 23  1  1  0  0  0  0
  7 24  1  0  0  0  0
 25 20  1  0  0  0  0
 26 27  1  0  0  0  0
 27 31  1  0  0  0  0
 28 21  1  0  0  0  0
 29 22  1  0  0  0  0
 30 26  1  0  0  0  0
 31 23  1  0  0  0  0
 32 29  1  0  0  0  0
 33 28  1  0  0  0  0
 34 30  1  0  0  0  0
 35 23  1  0  0  0  0
 37 36  1  0  0  0  0
 37 59  1  0  0  0  0
 38  2  1  0  0  0  0
 39 34  1  0  0  0  0
 40 32  1  0  0  0  0
 41 33  1  0  0  0  0
 11 42  1  0  0  0  0
  9 43  1  0  0  0  0
  8 44  1  0  0  0  0
 10 45  1  0  0  0  0
 46  6  1  0  0  0  0
 12 47  1  0  0  0  0
 48  3  1  0  0  0  0
 49 38  1  0  0  0  0
 50 43  1  0  0  0  0
 51 42  1  0  0  0  0
 52 47  1  0  0  0  0
 53 45  1  0  0  0  0
 54 44  1  0  0  0  0
 55 19  2  0  0  0  0
 56 21  2  0  0  0  0
 57 22  2  0  0  0  0
 58 35  1  0  0  0  0
 59 46  1  0  0  0  0
 60 26  2  0  0  0  0
 61 62  1  0  0  0  0
 62 35  1  0  0  0  0
 63 39  2  0  0  0  0
 64 40  2  0  0  0  0
 65 41  2  0  0  0  0
 66 53  2  0  0  0  0
 67 52  2  0  0  0  0
 68 50  2  0  0  0  0
 69 54  2  0  0  0  0
 70 51  2  0  0  0  0
  2 71  1  1  0  0  0
  6 72  1  1  0  0  0
  3 73  1  6  0  0  0
 74 39  1  0  0  0  0
 75 40  1  0  0  0  0
 76 41  1  0  0  0  0
 25 77  1  1  0  0  0
 25 78  1  6  0  0  0
 79 33  1  0  0  0  0
 80 34  1  0  0  0  0
 81 32  1  0  0  0  0
 27 82  1  6  0  0  0
 35 83  1  1  0  0  0
 84 80  1  0  0  0  0
 85 81  1  0  0  0  0
 86 79  1  0  0  0  0
 87 50  1  0  0  0  0
 88 53  1  0  0  0  0
 89 54  1  0  0  0  0
 90 51  1  0  0  0  0
 91 52  1  0  0  0  0
 92 76  1  0  0  0  0
 93 75  1  0  0  0  0
 94 74  1  0  0  0  0
 95 93  1  0  0  0  0
 96 92  1  0  0  0  0
 97 94  1  0  0  0  0
 58 48  1  0  0  0  0
 14  2  1  0  0  0  0
 61 27  1  0  0  0  0
 20 49  1  0  0  0  0
 37 25  1  0  0  0  0
 10  8  1  0  0  0  0
  9 11  1  0  0  0  0
M  END
>  <IDNUMBER> (N016-0024)
N016-0024

>  <available> (N016-0024)
425

>  <H_acceptor> (N016-0024)
27

>  <H_donor> (N016-0024)
6

>  <B_rotN> (N016-0024)
38

>  <N_O> (N016-0024)
30

>  <logP> (N016-0024)
1.76

>  <logD> (N016-0024)
2.9

>  <logSw> (N016-0024)
-8.67

>  <PSA> (N016-0024)
412.38

>  <Chiral_centers> (N016-0024)
22

>  <Name> (N016-0024)
ethyl 2-[(10-{[4,5-bis(acetyloxy)-6-[(1-ethoxy-3-hydroxy-1-oxopropan-2-yl)carbamoyl]-3-{[3,4,5-tris(acetyloxy)-6-[(1-ethoxy-3-hydroxy-1-oxopropan-2-yl)carbamoyl]oxan-2-yl]oxy}oxan-2-yl]oxy}-2,4a,6a,6b
,9,9,12a-heptamethyl-13-oxo-1,2,3,4,4a,5,6,6a,6b,7,8,8a,9,10,11,12,12a,12b,13,14b-icosahydropicen-2-yl)formamido]-3-hydroxypropanoate

>  <Smile> (N016-0024)
CCOC(C(NC(C1(CC2C3=CC(C4C(C)(CCC5C4(C)CCC(C5(C)C)OC4C(OC5C(C(C(C(O5)C(NC(C(=O)OCC)CO)=O)OC(=O)C)OC(=O)C)OC(=O)C)C(C(C(O4)C(NC(C(=O)OCC)CO)=O)OC(=O)C)OC(=O)C)C3(C)CCC2(C)CC1)=O)C)=O)CO)=O

>  <Collection> (N016-0024)
DC

>  <InChI Key> (N016-0024)
CIMUIXNCSSNFPE-LZUCLWHGSA-N

>  <PERCENTSP3> (N016-0024)
79.1

$$$$

  -ISIS-  -- StrEd -- 

 97103  0  0  0  0  0  0  0  0999 V2000
    3.2790    3.8901    0.0000 C   0  0  0  0  0  0  0  0  0  0  0  0
    2.6351    2.7623    0.0000 C   0  0  1  0  0  0  0  0  0  0  0  0
    3.2790    3.1236    0.0000 C   0  0  2  0  0  0  0  0  0  0  0  0
   -3.8214    0.9761    0.0000 C   0  0  0  0  0  0  0  0  0  0  0  0
   -4.8770   -4.2157    0.0000 C   0  0  0  0  0  0  0  0  0  0  0  0
    1.3340    2.7623    0.0000 C   0  0  2  0  0  0  0  0  0  0  0  0
   -1.8042   -1.7138    0.0000 C   0  0  0  0  0  0  0  0  0  0  0  0
   -4.9132   -0.4337    0.0000 C   0  0  0  0  0  0  0  0  0  0  0  0
   -6.0051   -5.6181    0.0000 C   0  0  0  0  0  0  0  0  0  0  0  0
   -3.8214   -1.7138    0.0000 C   0  0  0  0  0  0  0  0  0  0  0  0
   -4.8770   -7.0282    0.0000 C   0  0  0  0  0  0  0  0  0  0  0  0
   -2.8815   -7.0282    0.0000 C   0  0  0  0  0  0  0  0  0  0  0  0
   -1.8256   -5.6181    0.0000 C   0  0  0  0  0  0  0  0  0  0  0  0
    1.9918    3.1236    0.0000 C   0  0  0  0  0  0  0  0  0  0  0  0
   -0.7485   -0.4337    0.0000 C   0  0  0  0  0  0  0  0  0  0  0  0
   -2.8815   -4.2157    0.0000 O   0  0  0  0  0  0  0  0  0  0  0  0
   -1.8042    0.9761    0.0000 O   0  0  0  0  0  0  0  0  0  0  0  0
    2.6351    4.2876    0.0000 C   0  0  0  0  0  0  0  0  0  0  0  0
    1.9918    3.8901    0.0000 C   0  0  0  0  0  0  0  0  0  0  0  0
    1.3340    1.9308    0.0000 C   0  0  0  0  0  0  0  0  0  0  0  0
   -3.8359    1.7355    0.0000 C   0  0  0  0  0  0  0  0  0  0  0  0
   -4.8770   -3.5573    0.0000 C   0  0  0  0  0  0  0  0  0  0  0  0
    4.1105    4.4610    0.0000 C   0  0  0  0  0  0  0  0  0  0  0  0
   -1.8256   -3.5864    0.0000 O   0  0  0  0  0  0  0  0  0  0  0  0
    0.6399    1.5110    0.0000 C   0  0  2  0  0  0  0  0  0  0  0  0
    5.7085    6.3701    0.0000 C   0  0  0  0  0  0  0  0  0  0  0  0
    4.9272    5.8494    0.0000 C   0  0  2  0  0  0  0  0  0  0  0  0
    4.1105    5.3795    0.0000 C   0  0  0  0  0  0  0  0  0  0  0  0
   -5.6723   -3.0369    0.0000 N   0  0  0  0  0  0  0  0  0  0  0  0
   -4.5300    2.1909    0.0000 N   0  0  0  0  0  0  0  0  0  0  0  0
    4.9272    3.9910    0.0000 C   0  0  1  0  0  0  0  0  0  0  0  0
   -0.7485    1.5110    0.0000 O   0  0  0  0  0  0  0  0  0  0  0  0
   -0.0182    1.9308    0.0000 C   0  0  0  0  0  0  0  0  0  0  0  0
    6.9595    5.7627    0.0000 N   0  0  0  0  0  0  0  0  0  0  0  0
    2.6351    1.9308    0.0000 C   0  0  0  0  0  0  0  0  0  0  0  0
   -4.8770   -6.1605    0.0000 O   0  0  0  0  0  0  0  0  0  0  0  0
   -6.0051   -6.6088    0.0000 O   0  0  0  0  0  0  0  0  0  0  0  0
   -4.9132   -1.2439    0.0000 O   0  0  0  0  0  0  0  0  0  0  0  0
   -3.8214   -0.8823    0.0000 O   0  0  0  0  0  0  0  0  0  0  0  0
    0.6399    3.1236    0.0000 C   0  0  0  0  0  0  0  0  0  0  0  0
   -2.8815   -7.9827    0.0000 O   0  0  0  0  0  0  0  0  0  0  0  0
    4.1105    2.5741    0.0000 C   0  0  0  0  0  0  0  0  0  0  0  0
    1.9918    1.5110    0.0000 C   0  0  0  0  0  0  0  0  0  0  0  0
   -6.7861   -2.3428    0.0000 C   0  0  0  0  0  0  0  0  0  0  0  0
   -5.3110    3.0224    0.0000 C   0  0  0  0  0  0  0  0  0  0  0  0
    7.2196    6.8905    0.0000 C   0  0  0  0  0  0  0  0  0  0  0  0
   -6.7861   -3.0369    0.0000 C   0  0  0  0  0  0  0  0  0  0  0  0
   -4.5300    3.0224    0.0000 C   0  0  0  0  0  0  0  0  0  0  0  0
    7.6533    6.1602    0.0000 C   0  0  0  0  0  0  0  0  0  0  0  0
   -3.1056   -0.4845    0.0000 C   0  0  0  0  0  0  0  0  0  0  0  0
   -4.9132   -1.8221    0.0000 C   0  0  0  0  0  0  0  0  0  0  0  0
   -6.6487   -7.0425    0.0000 C   0  0  0  0  0  0  0  0  0  0  0  0
   -4.2189   -5.6906    0.0000 C   0  0  0  0  0  0  0  0  0  0  0  0
   -2.2236   -8.3442    0.0000 C   0  0  0  0  0  0  0  0  0  0  0  0
    1.1823    4.3600    0.0000 O   0  0  0  0  0  0  0  0  0  0  0  0
   -4.1325   -3.0369    0.0000 O   0  0  0  0  0  0  0  0  0  0  0  0
   -3.1419    2.2054    0.0000 O   0  0  0  0  0  0  0  0  0  0  0  0
    4.9272    3.0369    0.0000 C   0  0  0  0  0  0  0  0  0  0  0  0
   -0.0182    2.7623    0.0000 C   0  0  0  0  0  0  0  0  0  0  0  0
    5.7085    7.3750    0.0000 O   0  0  0  0  0  0  0  0  0  0  0  0
    5.7448    5.3795    0.0000 C   0  0  0  0  0  0  0  0  0  0  0  0
    5.7448    4.4610    0.0000 C   0  0  0  0  0  0  0  0  0  0  0  0
   -6.0556   -1.9088    0.0000 O   0  0  0  0  0  0  0  0  0  0  0  0
   -5.7593    2.3138    0.0000 O   0  0  0  0  0  0  0  0  0  0  0  0
    6.4890    6.8905    0.0000 O   0  0  0  0  0  0  0  0  0  0  0  0
   -7.4440   -6.7679    0.0000 O   0  0  0  0  0  0  0  0  0  0  0  0
   -5.3832   -2.1695    0.0000 O   0  0  0  0  0  0  0  0  0  0  0  0
   -3.4022   -6.0014    0.0000 O   0  0  0  0  0  0  0  0  0  0  0  0
   -2.3608   -0.8318    0.0000 O   0  0  0  0  0  0  0  0  0  0  0  0
   -1.4569   -8.0331    0.0000 O   0  0  0  0  0  0  0  0  0  0  0  0
    2.6351    3.4926    0.0000 C   0  0  0  0  0  0  0  0  0  0  0  0
    1.3340    3.5431    0.0000 C   0  0  0  0  0  0  0  0  0  0  0  0
    3.2936    2.2413    0.0000 C   0  0  0  0  0  0  0  0  0  0  0  0
   -7.5164   -1.9088    0.0000 O   0  0  0  0  0  0  0  0  0  0  0  0
   -5.7593    3.7164    0.0000 O   0  0  0  0  0  0  0  0  0  0  0  0
    7.6533    7.6065    0.0000 O   0  0  0  0  0  0  0  0  0  0  0  0
    0.1700    0.5783    0.0000 C   0  0  0  0  0  0  0  0  0  0  0  0
    1.2111    0.7300    0.0000 C   0  0  0  0  0  0  0  0  0  0  0  0
    4.1105    6.3701    0.0000 C   0  0  0  0  0  0  0  0  0  0  0  0
    5.8314    3.4415    0.0000 C   0  0  0  0  0  0  0  0  0  0  0  0
   -6.6487   -7.8743    0.0000 C   0  0  0  0  0  0  0  0  0  0  0  0
   -3.0911    0.3830    0.0000 C   0  0  0  0  0  0  0  0  0  0  0  0
   -4.4288   -2.1475    0.0000 C   0  0  0  0  0  0  0  0  0  0  0  0
   -4.2189   -4.8228    0.0000 C   0  0  0  0  0  0  0  0  0  0  0  0
   -2.2236   -9.1250    0.0000 C   0  0  0  0  0  0  0  0  0  0  0  0
    8.0873    5.4374    0.0000 C   0  0  0  0  0  0  0  0  0  0  0  0
   -7.6174   -3.0369    0.0000 C   0  0  0  0  0  0  0  0  0  0  0  0
   -4.5300    3.8393    0.0000 C   0  0  0  0  0  0  0  0  0  0  0  0
   -6.5979    3.7164    0.0000 C   0  0  0  0  0  0  0  0  0  0  0  0
    7.2196    8.3368    0.0000 C   0  0  0  0  0  0  0  0  0  0  0  0
   -7.5164   -0.9547    0.0000 C   0  0  0  0  0  0  0  0  0  0  0  0
   -8.3622   -0.4628    0.0000 C   0  0  0  0  0  0  0  0  0  0  0  0
    7.8273    9.1250    0.0000 C   0  0  0  0  0  0  0  0  0  0  0  0
   -6.9450    4.6346    0.0000 C   0  0  0  0  0  0  0  0  0  0  0  0
    8.3622    6.5797    0.0000 H   0  0  0  0  0  0  0  0  0  0  0  0
   -6.7861   -3.9046    0.0000 H   0  0  0  0  0  0  0  0  0  0  0  0
   -3.6985    3.0224    0.0000 H   0  0  0  0  0  0  0  0  0  0  0  0
  2  3  1  0  0  0  0
  3  1  1  0  0  0  0
  4 17  1  0  0  0  0
  5 16  1  0  0  0  0
 14  6  1  0  0  0  0
  7 15  1  0  0  0  0
  8  4  1  0  0  0  0
  9  5  1  0  0  0  0
 10  7  1  0  0  0  0
 11 12  1  0  0  0  0
 12 13  1  0  0  0  0
 13 24  1  0  0  0  0
 14 19  1  0  0  0  0
 15 32  1  0  0  0  0
 16 13  1  0  0  0  0
 17 15  1  0  0  0  0
 18  1  2  0  0  0  0
 19 18  1  0  0  0  0
 20  6  1  0  0  0  0
  4 21  1  0  0  0  0
  5 22  1  0  0  0  0
 23  1  1  0  0  0  0
  7 24  1  0  0  0  0
 25 20  1  0  0  0  0
 26 27  1  0  0  0  0
 27 28  1  0  0  0  0
 28 23  1  0  0  0  0
 29 22  1  0  0  0  0
 30 21  1  0  0  0  0
 31 23  1  0  0  0  0
 33 32  1  0  0  0  0
 33 59  1  0  0  0  0
 34 26  1  0  0  0  0
 35  2  1  0  0  0  0
 11 36  1  0  0  0  0
  9 37  1  0  0  0  0
  8 38  1  0  0  0  0
 10 39  1  0  0  0  0
 40  6  1  0  0  0  0
 12 41  1  0  0  0  0
 42  3  1  0  0  0  0
 43 35  1  0  0  0  0
 47 44  1  0  0  0  0
 48 45  1  0  0  0  0
 49 46  1  0  0  0  0
 47 29  1  0  0  0  0
 48 30  1  0  0  0  0
 49 34  1  0  0  0  0
 50 39  1  0  0  0  0
 51 38  1  0  0  0  0
 52 37  1  0  0  0  0
 53 36  1  0  0  0  0
 54 41  1  0  0  0  0
 55 19  2  0  0  0  0
 56 22  2  0  0  0  0
 57 21  2  0  0  0  0
 58 31  1  0  0  0  0
 59 40  1  0  0  0  0
 60 26  2  0  0  0  0
 61 62  1  0  0  0  0
 62 31  1  0  0  0  0
 63 44  2  0  0  0  0
 64 45  2  0  0  0  0
 65 46  2  0  0  0  0
 66 52  2  0  0  0  0
 67 51  2  0  0  0  0
 68 53  2  0  0  0  0
 69 50  2  0  0  0  0
 70 54  2  0  0  0  0
  2 71  1  1  0  0  0
  6 72  1  1  0  0  0
  3 73  1  6  0  0  0
 74 44  1  0  0  0  0
 75 45  1  0  0  0  0
 76 46  1  0  0  0  0
 25 77  1  1  0  0  0
 25 78  1  6  0  0  0
 27 79  1  6  0  0  0
 31 80  1  1  0  0  0
 81 52  1  0  0  0  0
 82 50  1  0  0  0  0
 83 51  1  0  0  0  0
 84 53  1  0  0  0  0
 85 54  1  0  0  0  0
 86 49  1  0  0  0  0
 87 47  1  0  0  0  0
 88 48  1  0  0  0  0
 89 75  1  0  0  0  0
 90 76  1  0  0  0  0
 91 74  1  0  0  0  0
 92 91  1  0  0  0  0
 93 90  1  0  0  0  0
 94 89  1  0  0  0  0
 95 49  1  0  0  0  0
 96 47  1  0  0  0  0
 97 48  1  0  0  0  0
 42 58  1  0  0  0  0
  2 14  1  0  0  0  0
 27 61  1  0  0  0  0
 43 20  1  0  0  0  0
 25 33  1  0  0  0  0
  8 10  1  0  0  0  0
 11  9  1  0  0  0  0
M  END
>  <IDNUMBER> (N016-0025)
N016-0025

>  <available> (N016-0025)
187

>  <H_acceptor> (N016-0025)
24

>  <H_donor> (N016-0025)
3

>  <B_rotN> (N016-0025)
32

>  <N_O> (N016-0025)
27

>  <logP> (N016-0025)
4.42

>  <logD> (N016-0025)
7.23

>  <logSw> (N016-0025)
-10.05

>  <PSA> (N016-0025)
351.69

>  <Chiral_centers> (N016-0025)
22

>  <Name> (N016-0025)
ethyl 2-[(10-{[4,5-bis(acetyloxy)-6-[(1-ethoxy-1-oxopropan-2-yl)carbamoyl]-3-{[3,4,5-tris(acetyloxy)-6-[(1-ethoxy-1-oxopropan-2-yl)carbamoyl]oxan-2-yl]oxy}oxan-2-yl]oxy}-2,4a,6a,6b,9,9,12a-heptamethyl
-13-oxo-1,2,3,4,4a,5,6,6a,6b,7,8,8a,9,10,11,12,12a,12b,13,14b-icosahydropicen-2-yl)formamido]propanoate

>  <Smile> (N016-0025)
CCOC(C(NC(C1OC(C(OC2C(C(C(C(O2)C(NC(C(=O)OCC)C)=O)OC(=O)C)OC(=O)C)OC(=O)C)C(C1OC(=O)C)OC(=O)C)OC1C(C2C(C3C(C)(CC2)C2(C(C4CC(C(NC(C(=O)OCC)C)=O)(C)CCC4(CC2)C)=CC3=O)C)(C)CC1)(C)C)=O)C)=O

>  <Collection> (N016-0025)
DC

>  <InChI Key> (N016-0025)
YVIXIRPEKGFJHS-SJLHRZKWSA-N

>  <PERCENTSP3> (N016-0025)
79.1

$$$$

  -ISIS-  -- StrEd -- 

109118  0  0  0  0  0  0  0  0999 V2000
    3.9068    4.1582    0.0000 C   0  0  0  0  0  0  0  0  0  0  0  0
    3.2528    3.0367    0.0000 C   0  0  1  0  0  0  0  0  0  0  0  0
    3.9068    3.3962    0.0000 C   0  0  2  0  0  0  0  0  0  0  0  0
   -3.1516    1.2758    0.0000 C   0  0  0  0  0  0  0  0  0  0  0  0
   -4.2016   -3.8854    0.0000 C   0  0  0  0  0  0  0  0  0  0  0  0
    1.9586    3.0367    0.0000 C   0  0  2  0  0  0  0  0  0  0  0  0
   -1.1681   -1.3981    0.0000 C   0  0  0  0  0  0  0  0  0  0  0  0
   -4.2372   -0.1256    0.0000 C   0  0  0  0  0  0  0  0  0  0  0  0
   -5.3227   -5.2797    0.0000 C   0  0  0  0  0  0  0  0  0  0  0  0
   -3.1516   -1.3981    0.0000 C   0  0  0  0  0  0  0  0  0  0  0  0
   -4.2016   -6.6814    0.0000 C   0  0  0  0  0  0  0  0  0  0  0  0
   -2.2174   -6.6814    0.0000 C   0  0  0  0  0  0  0  0  0  0  0  0
   -1.1823   -5.2797    0.0000 C   0  0  0  0  0  0  0  0  0  0  0  0
    2.6128    3.3962    0.0000 C   0  0  0  0  0  0  0  0  0  0  0  0
   -0.1113   -0.1256    0.0000 C   0  0  0  0  0  0  0  0  0  0  0  0
   -2.2174   -3.8854    0.0000 O   0  0  0  0  0  0  0  0  0  0  0  0
   -1.1681    1.2758    0.0000 O   0  0  0  0  0  0  0  0  0  0  0  0
    3.2528    4.5679    0.0000 C   0  0  0  0  0  0  0  0  0  0  0  0
    2.6128    4.1582    0.0000 C   0  0  0  0  0  0  0  0  0  0  0  0
    1.9586    2.2032    0.0000 C   0  0  0  0  0  0  0  0  0  0  0  0
   -3.1665    2.0162    0.0000 C   0  0  0  0  0  0  0  0  0  0  0  0
   -4.2016   -3.2309    0.0000 C   0  0  0  0  0  0  0  0  0  0  0  0
    4.7193    4.7406    0.0000 C   0  0  0  0  0  0  0  0  0  0  0  0
   -1.1823   -3.2600    0.0000 O   0  0  0  0  0  0  0  0  0  0  0  0
    1.2687    1.8078    0.0000 C   0  0  2  0  0  0  0  0  0  0  0  0
    6.3219    6.6381    0.0000 C   0  0  0  0  0  0  0  0  0  0  0  0
    5.5457    6.1207    0.0000 C   0  0  2  0  0  0  0  0  0  0  0  0
   -4.0793    2.4475    0.0000 N   0  0  0  0  0  0  0  0  0  0  0  0
   -5.1645   -2.8643    0.0000 N   0  0  0  0  0  0  0  0  0  0  0  0
    4.7193    5.6534    0.0000 C   0  0  0  0  0  0  0  0  0  0  0  0
    7.1486    6.1207    0.0000 N   0  0  0  0  0  0  0  0  0  0  0  0
    5.5457    4.2591    0.0000 C   0  0  1  0  0  0  0  0  0  0  0  0
   -0.1113    1.8078    0.0000 O   0  0  0  0  0  0  0  0  0  0  0  0
    0.6290    2.2032    0.0000 C   0  0  0  0  0  0  0  0  0  0  0  0
    3.2528    2.2032    0.0000 C   0  0  0  0  0  0  0  0  0  0  0  0
   -6.0129   -2.8643    0.0000 C   0  0  0  0  0  0  0  0  0  0  0  0
   -4.0793    3.2237    0.0000 C   0  0  0  0  0  0  0  0  0  0  0  0
    7.9106    6.5374    0.0000 C   0  0  0  0  0  0  0  0  0  0  0  0
   -4.2016   -5.8188    0.0000 O   0  0  0  0  0  0  0  0  0  0  0  0
   -5.3227   -6.2646    0.0000 O   0  0  0  0  0  0  0  0  0  0  0  0
   -4.2372   -0.9309    0.0000 O   0  0  0  0  0  0  0  0  0  0  0  0
   -3.1516   -0.5714    0.0000 O   0  0  0  0  0  0  0  0  0  0  0  0
    1.2687    3.3962    0.0000 C   0  0  0  0  0  0  0  0  0  0  0  0
   -2.2174   -7.6301    0.0000 O   0  0  0  0  0  0  0  0  0  0  0  0
    4.7193    2.8429    0.0000 C   0  0  0  0  0  0  0  0  0  0  0  0
   -6.4801   -2.1239    0.0000 C   0  0  0  0  0  0  0  0  0  0  0  0
   -4.7908    3.6408    0.0000 C   0  0  0  0  0  0  0  0  0  0  0  0
    7.9106    7.3644    0.0000 C   0  0  0  0  0  0  0  0  0  0  0  0
    2.6128    1.8078    0.0000 C   0  0  0  0  0  0  0  0  0  0  0  0
   -5.9624   -6.6957    0.0000 C   0  0  0  0  0  0  0  0  0  0  0  0
   -3.5473   -5.3518    0.0000 C   0  0  0  0  0  0  0  0  0  0  0  0
   -1.5635   -7.9893    0.0000 C   0  0  0  0  0  0  0  0  0  0  0  0
   -2.4404   -0.1763    0.0000 C   0  0  0  0  0  0  0  0  0  0  0  0
   -4.2372   -1.5059    0.0000 C   0  0  0  0  0  0  0  0  0  0  0  0
    1.8007    4.6180    0.0000 O   0  0  0  0  0  0  0  0  0  0  0  0
   -2.4763    2.4977    0.0000 O   0  0  0  0  0  0  0  0  0  0  0  0
   -3.4609   -2.7138    0.0000 O   0  0  0  0  0  0  0  0  0  0  0  0
    5.5457    3.3101    0.0000 C   0  0  0  0  0  0  0  0  0  0  0  0
    0.6290    3.0367    0.0000 C   0  0  0  0  0  0  0  0  0  0  0  0
    6.3219    7.6447    0.0000 O   0  0  0  0  0  0  0  0  0  0  0  0
    6.3581    5.6534    0.0000 C   0  0  0  0  0  0  0  0  0  0  0  0
    6.3581    4.7406    0.0000 C   0  0  0  0  0  0  0  0  0  0  0  0
   -3.3891    3.6046    0.0000 C   0  0  0  0  0  0  0  0  0  0  0  0
    8.6148    6.1207    0.0000 C   0  0  0  0  0  0  0  0  0  0  0  0
   -6.4801   -3.5761    0.0000 C   0  0  0  0  0  0  0  0  0  0  0  0
    7.1846    7.7595    0.0000 O   0  0  0  0  0  0  0  0  0  0  0  0
   -6.0488   -1.4198    0.0000 O   0  0  0  0  0  0  0  0  0  0  0  0
   -5.4810    3.2600    0.0000 O   0  0  0  0  0  0  0  0  0  0  0  0
   -4.7044   -1.8508    0.0000 O   0  0  0  0  0  0  0  0  0  0  0  0
   -2.7351   -5.6606    0.0000 O   0  0  0  0  0  0  0  0  0  0  0  0
   -1.7000   -0.5213    0.0000 O   0  0  0  0  0  0  0  0  0  0  0  0
   -0.8229   -7.6806    0.0000 O   0  0  0  0  0  0  0  0  0  0  0  0
   -6.7532   -6.4226    0.0000 O   0  0  0  0  0  0  0  0  0  0  0  0
    3.2528    3.7557    0.0000 C   0  0  0  0  0  0  0  0  0  0  0  0
    1.9586    3.8133    0.0000 C   0  0  0  0  0  0  0  0  0  0  0  0
    3.9068    2.5193    0.0000 C   0  0  0  0  0  0  0  0  0  0  0  0
    8.6148    7.7809    0.0000 O   0  0  0  0  0  0  0  0  0  0  0  0
   -7.2923   -2.1239    0.0000 O   0  0  0  0  0  0  0  0  0  0  0  0
   -4.7908    4.3811    0.0000 O   0  0  0  0  0  0  0  0  0  0  0  0
   -3.3891    4.5895    0.0000 C   0  0  0  0  0  0  0  0  0  0  0  0
    8.6364    5.1357    0.0000 C   0  0  0  0  0  0  0  0  0  0  0  0
   -7.4793   -3.5761    0.0000 C   0  0  0  0  0  0  0  0  0  0  0  0
    0.8015    0.8804    0.0000 C   0  0  0  0  0  0  0  0  0  0  0  0
    1.8366    1.0312    0.0000 C   0  0  0  0  0  0  0  0  0  0  0  0
    4.7193    6.6381    0.0000 C   0  0  0  0  0  0  0  0  0  0  0  0
    6.4439    3.7055    0.0000 C   0  0  0  0  0  0  0  0  0  0  0  0
   -3.5473   -4.4889    0.0000 C   0  0  0  0  0  0  0  0  0  0  0  0
   -1.5635   -8.7659    0.0000 C   0  0  0  0  0  0  0  0  0  0  0  0
   -5.9624   -7.5224    0.0000 C   0  0  0  0  0  0  0  0  0  0  0  0
   -2.4261    0.6866    0.0000 C   0  0  0  0  0  0  0  0  0  0  0  0
   -3.7557   -1.8295    0.0000 C   0  0  0  0  0  0  0  0  0  0  0  0
   -5.6534    4.8626    0.0000 C   0  0  0  0  0  0  0  0  0  0  0  0
   -7.7595   -1.2111    0.0000 C   0  0  0  0  0  0  0  0  0  0  0  0
    8.6148    8.7659    0.0000 C   0  0  0  0  0  0  0  0  0  0  0  0
   -2.5268    5.0710    0.0000 C   0  0  0  0  0  0  0  0  0  0  0  0
    7.7880    4.6400    0.0000 C   0  0  0  0  0  0  0  0  0  0  0  0
    9.4991    4.6400    0.0000 C   0  0  0  0  0  0  0  0  0  0  0  0
   -4.2514    5.0856    0.0000 C   0  0  0  0  0  0  0  0  0  0  0  0
   -7.9608   -2.7138    0.0000 C   0  0  0  0  0  0  0  0  0  0  0  0
   -7.9967   -4.4530    0.0000 C   0  0  0  0  0  0  0  0  0  0  0  0
   -4.2372    6.0847    0.0000 C   0  0  0  0  0  0  0  0  0  0  0  0
   -2.5268    6.0702    0.0000 C   0  0  0  0  0  0  0  0  0  0  0  0
    7.7738    3.6408    0.0000 C   0  0  0  0  0  0  0  0  0  0  0  0
   -8.9814   -2.6918    0.0000 C   0  0  0  0  0  0  0  0  0  0  0  0
   -9.0176   -4.4171    0.0000 C   0  0  0  0  0  0  0  0  0  0  0  0
    9.4991    3.6191    0.0000 C   0  0  0  0  0  0  0  0  0  0  0  0
   -9.4991   -3.5761    0.0000 C   0  0  0  0  0  0  0  0  0  0  0  0
    8.6148    3.1231    0.0000 C   0  0  0  0  0  0  0  0  0  0  0  0
   -3.3891    6.5734    0.0000 C   0  0  0  0  0  0  0  0  0  0  0  0
  2  3  1  0  0  0  0
  3  1  1  0  0  0  0
  4 17  1  0  0  0  0
  5 16  1  0  0  0  0
 14  6  1  0  0  0  0
  7 15  1  0  0  0  0
  8  4  1  0  0  0  0
  9  5  1  0  0  0  0
 10  7  1  0  0  0  0
 11 12  1  0  0  0  0
 12 13  1  0  0  0  0
 13 24  1  0  0  0  0
 14 19  1  0  0  0  0
 15 33  1  0  0  0  0
 16 13  1  0  0  0  0
 17 15  1  0  0  0  0
 18  1  2  0  0  0  0
 19 18  1  0  0  0  0
 20  6  1  0  0  0  0
  4 21  1  0  0  0  0
  5 22  1  0  0  0  0
 23  1  1  0  0  0  0
  7 24  1  0  0  0  0
 25 20  1  0  0  0  0
 26 27  1  0  0  0  0
 27 30  1  0  0  0  0
 28 21  1  0  0  0  0
 29 22  1  0  0  0  0
 30 23  1  0  0  0  0
 31 26  1  0  0  0  0
 32 23  1  0  0  0  0
 34 33  1  0  0  0  0
 34 59  1  0  0  0  0
 35  2  1  0  0  0  0
 36 29  1  0  0  0  0
 37 28  1  0  0  0  0
 38 31  1  0  0  0  0
 11 39  1  0  0  0  0
  9 40  1  0  0  0  0
  8 41  1  0  0  0  0
 10 42  1  0  0  0  0
 43  6  1  0  0  0  0
 12 44  1  0  0  0  0
 45  3  1  0  0  0  0
 46 36  1  0  0  0  0
 47 37  1  0  0  0  0
 48 38  1  0  0  0  0
 49 35  1  0  0  0  0
 50 40  1  0  0  0  0
 51 39  1  0  0  0  0
 52 44  1  0  0  0  0
 53 42  1  0  0  0  0
 54 41  1  0  0  0  0
 55 19  2  0  0  0  0
 56 21  2  0  0  0  0
 57 22  2  0  0  0  0
 58 32  1  0  0  0  0
 59 43  1  0  0  0  0
 60 26  2  0  0  0  0
 61 62  1  0  0  0  0
 62 32  1  0  0  0  0
 63 37  1  0  0  0  0
 64 38  1  0  0  0  0
 65 36  1  0  0  0  0
 66 48  2  0  0  0  0
 67 46  2  0  0  0  0
 68 47  2  0  0  0  0
 69 54  2  0  0  0  0
 70 51  2  0  0  0  0
 71 53  2  0  0  0  0
 72 52  2  0  0  0  0
 73 50  2  0  0  0  0
  2 74  1  1  0  0  0
  6 75  1  1  0  0  0
  3 76  1  6  0  0  0
 77 48  1  0  0  0  0
 78 46  1  0  0  0  0
 79 47  1  0  0  0  0
 80 63  1  0  0  0  0
 81 64  1  0  0  0  0
 82 65  1  0  0  0  0
 25 83  1  1  0  0  0
 25 84  1  6  0  0  0
 27 85  1  6  0  0  0
 32 86  1  1  0  0  0
 87 51  1  0  0  0  0
 88 52  1  0  0  0  0
 89 50  1  0  0  0  0
 90 53  1  0  0  0  0
 91 54  1  0  0  0  0
 92 79  1  0  0  0  0
 93 78  1  0  0  0  0
 94 77  1  0  0  0  0
 95 80  2  0  0  0  0
 96 81  2  0  0  0  0
 97 81  1  0  0  0  0
 98 80  1  0  0  0  0
 99 82  2  0  0  0  0
100 82  1  0  0  0  0
101 98  2  0  0  0  0
102 95  1  0  0  0  0
103 96  1  0  0  0  0
104 99  1  0  0  0  0
105100  2  0  0  0  0
106 97  2  0  0  0  0
107105  1  0  0  0  0
108106  1  0  0  0  0
109101  1  0  0  0  0
 58 45  1  0  0  0  0
 14  2  1  0  0  0  0
 61 27  1  0  0  0  0
 20 49  1  0  0  0  0
 34 25  1  0  0  0  0
103108  2  0  0  0  0
 10  8  1  0  0  0  0
  9 11  1  0  0  0  0
102109  2  0  0  0  0
104107  2  0  0  0  0
M  END
>  <IDNUMBER> (N016-0027)
N016-0027

>  <available> (N016-0027)
415

>  <H_acceptor> (N016-0027)
24

>  <H_donor> (N016-0027)
3

>  <B_rotN> (N016-0027)
35

>  <N_O> (N016-0027)
27

>  <logP> (N016-0027)
8.04

>  <logD> (N016-0027)
11.26

>  <logSw> (N016-0027)
-12.39

>  <PSA> (N016-0027)
351.69

>  <Chiral_centers> (N016-0027)
22

>  <Name> (N016-0027)
methyl 2-{[3,4-bis(acetyloxy)-6-({11-[(1-methoxy-1-oxo-3-phenylpropan-2-yl)carbamoyl]-4,4,6a,6b,8a,11,14b-heptamethyl-14-oxo-1,2,3,4,4a,5,6,6a,6b,7,8,8a,9,10,11,12,12a,14,14a,14b-icosahydropicen-3-yl}
oxy)-5-{[3,4,5-tris(acetyloxy)-6-[(1-methoxy-1-oxo-3-phenylpropan-2-yl)carbamoyl]oxan-2-yl]oxy}oxan-2-yl]formamido}-3-phenylpropanoate

>  <Smile> (N016-0027)
c1ccc(CC(NC(C2OC(C(OC3C(C(C(C(O3)C(NC(C(=O)OC)Cc3ccccc3)=O)OC(=O)C)OC(=O)C)OC(=O)C)C(C2OC(=O)C)OC(=O)C)OC2C(C3C(C4C(C)(CC3)C3(C(C5CC(C(NC(C(=O)OC)Cc6ccccc6)=O)(C)CCC5(CC3)C)=CC4=O)C)(C)CC2)(C)C)=O)C(=
O)OC)cc1

>  <Collection> (N016-0027)
DC

>  <InChI Key> (N016-0027)
JGKQZWODEYGXAN-QLBZFQBFSA-N

>  <PERCENTSP3> (N016-0027)
61

$$$$

  -ISIS-  -- StrEd -- 

 76 82  0  0  0  0  0  0  0  0999 V2000
    2.4090    3.0741    0.0000 C   0  0  0  0  0  0  0  0  0  0  0  0
    1.5812    1.6082    0.0000 C   0  0  1  0  0  0  0  0  0  0  0  0
    2.4090    2.0834    0.0000 C   0  0  2  0  0  0  0  0  0  0  0  0
   -0.1156    1.6082    0.0000 C   0  0  2  0  0  0  0  0  0  0  0  0
   -3.6032   -2.1987    0.0000 C   0  0  0  0  0  0  0  0  0  0  0  0
   -5.5919   -4.4788    0.0000 C   0  0  0  0  0  0  0  0  0  0  0  0
   -4.9200   -0.3934    0.0000 C   0  0  0  0  0  0  0  0  0  0  0  0
   -4.9200   -2.1987    0.0000 C   0  0  0  0  0  0  0  0  0  0  0  0
   -5.6528   -1.3574    0.0000 C   0  0  0  0  0  0  0  0  0  0  0  0
   -6.3723   -5.4287    0.0000 C   0  0  0  0  0  0  0  0  0  0  0  0
   -5.5919   -6.3519    0.0000 C   0  0  0  0  0  0  0  0  0  0  0  0
   -4.2685   -6.3519    0.0000 C   0  0  0  0  0  0  0  0  0  0  0  0
   -3.5694   -5.4287    0.0000 C   0  0  0  0  0  0  0  0  0  0  0  0
    0.7328    2.0834    0.0000 C   0  0  0  0  0  0  0  0  0  0  0  0
   -2.8706   -1.3574    0.0000 C   0  0  0  0  0  0  0  0  0  0  0  0
   -4.2685   -4.4788    0.0000 O   0  0  0  0  0  0  0  0  0  0  0  0
   -3.6032   -0.3934    0.0000 O   0  0  0  0  0  0  0  0  0  0  0  0
    1.5812    3.6102    0.0000 C   0  0  0  0  0  0  0  0  0  0  0  0
    0.7328    3.0741    0.0000 C   0  0  0  0  0  0  0  0  0  0  0  0
   -0.1156    0.5157    0.0000 C   0  0  0  0  0  0  0  0  0  0  0  0
    3.5153    3.8409    0.0000 C   0  0  0  0  0  0  0  0  0  0  0  0
   -3.5694   -3.7460    0.0000 O   0  0  0  0  0  0  0  0  0  0  0  0
   -1.0247   -0.0204    0.0000 C   0  0  1  0  0  0  0  0  0  0  0  0
    4.5737    5.6664    0.0000 C   0  0  1  0  0  0  0  0  0  0  0  0
    3.5153    5.0625    0.0000 C   0  0  0  0  0  0  0  0  0  0  0  0
    4.5737    3.2234    0.0000 C   0  0  1  0  0  0  0  0  0  0  0  0
   -5.5919   -3.8953    0.0000 C   0  0  0  0  0  0  0  0  0  0  0  0
   -4.9200    0.1765    0.0000 C   0  0  0  0  0  0  0  0  0  0  0  0
   -2.8706   -0.0204    0.0000 O   0  0  0  0  0  0  0  0  0  0  0  0
   -1.8935    0.5157    0.0000 C   0  0  0  0  0  0  0  0  0  0  0  0
    1.5812    0.5157    0.0000 C   0  0  0  0  0  0  0  0  0  0  0  0
    5.6191    6.3655    0.0000 C   0  0  0  0  0  0  0  0  0  0  0  0
   -6.3723   -6.0125    0.0000 O   0  0  0  0  0  0  0  0  0  0  0  0
   -5.6732   -1.8935    0.0000 O   0  0  0  0  0  0  0  0  0  0  0  0
   -4.9200   -1.7439    0.0000 O   0  0  0  0  0  0  0  0  0  0  0  0
   -5.5919   -5.8634    0.0000 O   0  0  0  0  0  0  0  0  0  0  0  0
   -1.0247    2.0834    0.0000 C   0  0  0  0  0  0  0  0  0  0  0  0
   -4.2685   -6.8133    0.0000 O   0  0  0  0  0  0  0  0  0  0  0  0
    3.5153    1.3846    0.0000 C   0  0  0  0  0  0  0  0  0  0  0  0
    0.7328   -0.0204    0.0000 C   0  0  0  0  0  0  0  0  0  0  0  0
   -5.0487   -5.6730    0.0000 C   0  0  0  0  0  0  0  0  0  0  0  0
   -6.8405   -6.3247    0.0000 C   0  0  0  0  0  0  0  0  0  0  0  0
   -3.7936   -7.1051    0.0000 C   0  0  0  0  0  0  0  0  0  0  0  0
   -6.1414   -2.1378    0.0000 C   0  0  0  0  0  0  0  0  0  0  0  0
   -4.3841   -1.5472    0.0000 C   0  0  0  0  0  0  0  0  0  0  0  0
   -0.3123    3.6918    0.0000 O   0  0  0  0  0  0  0  0  0  0  0  0
    4.5737    1.9683    0.0000 C   0  0  0  0  0  0  0  0  0  0  0  0
   -1.8935    1.6082    0.0000 C   0  0  0  0  0  0  0  0  0  0  0  0
    5.6528    5.0625    0.0000 C   0  0  0  0  0  0  0  0  0  0  0  0
    5.6528    3.8409    0.0000 C   0  0  0  0  0  0  0  0  0  0  0  0
   -4.2345    0.5837    0.0000 O   0  0  0  0  0  0  0  0  0  0  0  0
   -4.8860   -3.2302    0.0000 O   0  0  0  0  0  0  0  0  0  0  0  0
    5.6191    7.6889    0.0000 O   0  0  0  0  0  0  0  0  0  0  0  0
   -3.7936   -7.6889    0.0000 O   0  0  0  0  0  0  0  0  0  0  0  0
   -7.3766   -6.0938    0.0000 O   0  0  0  0  0  0  0  0  0  0  0  0
   -6.6438   -1.8731    0.0000 O   0  0  0  0  0  0  0  0  0  0  0  0
   -4.5604   -5.9991    0.0000 O   0  0  0  0  0  0  0  0  0  0  0  0
   -3.9089   -1.8731    0.0000 O   0  0  0  0  0  0  0  0  0  0  0  0
    1.5812    2.5515    0.0000 C   0  0  0  0  0  0  0  0  0  0  0  0
   -0.1156    2.6195    0.0000 C   0  0  0  0  0  0  0  0  0  0  0  0
    2.4430    0.9227    0.0000 C   0  0  0  0  0  0  0  0  0  0  0  0
   -5.4899    0.4682    0.0000 O   0  0  0  0  0  0  0  0  0  0  0  0
   -6.5486   -3.2776    0.0000 O   0  0  0  0  0  0  0  0  0  0  0  0
    6.8405    5.6664    0.0000 O   0  0  0  0  0  0  0  0  0  0  0  0
   -0.2647   -1.0451    0.0000 C   0  0  0  0  0  0  0  0  0  0  0  0
   -1.6286   -1.2418    0.0000 C   0  0  0  0  0  0  0  0  0  0  0  0
    3.5153    6.3519    0.0000 C   0  0  0  0  0  0  0  0  0  0  0  0
    5.7954    2.4906    0.0000 C   0  0  0  0  0  0  0  0  0  0  0  0
   -3.2572   -6.8405    0.0000 C   0  0  0  0  0  0  0  0  0  0  0  0
   -4.9200   -5.1031    0.0000 C   0  0  0  0  0  0  0  0  0  0  0  0
   -4.2549   -0.9773    0.0000 C   0  0  0  0  0  0  0  0  0  0  0  0
   -6.8405   -6.8946    0.0000 C   0  0  0  0  0  0  0  0  0  0  0  0
   -6.1414   -2.7077    0.0000 C   0  0  0  0  0  0  0  0  0  0  0  0
    7.7702    6.2703    0.0000 C   0  0  0  0  0  0  0  0  0  0  0  0
   -5.4899    1.5472    0.0000 C   0  0  0  0  0  0  0  0  0  0  0  0
   -7.7702   -3.2776    0.0000 C   0  0  0  0  0  0  0  0  0  0  0  0
  2  3  1  0  0  0  0
  3  1  1  0  0  0  0
 14  4  1  0  0  0  0
  5 15  1  0  0  0  0
  6 16  1  0  0  0  0
  7 17  1  0  0  0  0
  8  5  1  0  0  0  0
  9  7  1  0  0  0  0
 10  6  1  0  0  0  0
 11 12  1  0  0  0  0
 12 13  1  0  0  0  0
 13 22  1  0  0  0  0
 14 19  1  0  0  0  0
 15 29  1  0  0  0  0
 16 13  1  0  0  0  0
 17 15  1  0  0  0  0
 18  1  2  0  0  0  0
 19 18  1  0  0  0  0
 20  4  1  0  0  0  0
 21  1  1  0  0  0  0
  5 22  1  0  0  0  0
 23 20  1  0  0  0  0
 24 25  1  0  0  0  0
 25 21  1  0  0  0  0
 26 21  1  0  0  0  0
  6 27  1  0  0  0  0
  7 28  1  0  0  0  0
 30 29  1  0  0  0  0
 30 48  1  0  0  0  0
 31  2  1  0  0  0  0
 32 24  1  0  0  0  0
 10 33  1  0  0  0  0
  9 34  1  0  0  0  0
  8 35  1  0  0  0  0
 11 36  1  0  0  0  0
 37  4  1  0  0  0  0
 12 38  1  0  0  0  0
 39  3  1  0  0  0  0
 40 31  1  0  0  0  0
 41 36  1  0  0  0  0
 42 33  1  0  0  0  0
 43 38  1  0  0  0  0
 44 34  1  0  0  0  0
 45 35  1  0  0  0  0
 46 19  2  0  0  0  0
 47 26  1  0  0  0  0
 48 37  1  0  0  0  0
 49 50  1  0  0  0  0
 50 26  1  0  0  0  0
 51 28  2  0  0  0  0
 52 27  2  0  0  0  0
 53 32  2  0  0  0  0
 54 43  2  0  0  0  0
 55 42  2  0  0  0  0
 56 44  2  0  0  0  0
 57 41  2  0  0  0  0
 58 45  2  0  0  0  0
  2 59  1  1  0  0  0
  4 60  1  1  0  0  0
  3 61  1  6  0  0  0
 62 28  1  0  0  0  0
 63 27  1  0  0  0  0
 64 32  1  0  0  0  0
 23 65  1  6  0  0  0
 23 66  1  1  0  0  0
 24 67  1  6  0  0  0
 26 68  1  1  0  0  0
 69 43  1  0  0  0  0
 70 41  1  0  0  0  0
 71 45  1  0  0  0  0
 72 42  1  0  0  0  0
 73 44  1  0  0  0  0
 74 64  1  0  0  0  0
 75 62  1  0  0  0  0
 76 63  1  0  0  0  0
 47 39  1  0  0  0  0
 14  2  1  0  0  0  0
 49 24  1  0  0  0  0
 20 40  1  0  0  0  0
 30 23  1  0  0  0  0
  8  9  1  0  0  0  0
 10 11  1  0  0  0  0
M  END
>  <IDNUMBER> (N016-0048)
N016-0048

>  <available> (N016-0048)
404

>  <H_acceptor> (N016-0048)
21

>  <H_donor> (N016-0048)
0

>  <B_rotN> (N016-0048)
20

>  <N_O> (N016-0048)
21

>  <logP> (N016-0048)
4.74

>  <logD> (N016-0048)
5.96

>  <logSw> (N016-0048)
-8.69

>  <PSA> (N016-0048)
264.39

>  <Chiral_centers> (N016-0048)
19

>  <Name> (N016-0048)
methyl 3,4-bis(acetyloxy)-6-{[11-(methoxycarbonyl)-4,4,6a,6b,8a,11,14b-heptamethyl-14-oxo-1,2,3,4,4a,5,6,6a,6b,7,8,8a,9,10,11,12,12a,14,14a,14b-icosahydropicen-3-yl]oxy}-5-{[3,4,5-tris(acetyloxy)-6-(m
ethoxycarbonyl)oxan-2-yl]oxy}oxane-2-carboxylate

>  <Smile> (N016-0048)
COC(C1OC(C(C(C1OC(=O)C)OC(=O)C)OC(=O)C)OC1C(OC2C(C3C(C4C(C)(CC3)C3(C(C5CC(C(=O)OC)(C)CCC5(CC3)C)=CC4=O)C)(C)CC2)(C)C)OC(C(C1OC(=O)C)OC(=O)C)C(=O)OC)=O

>  <Collection> (N016-0048)
DC

>  <InChI Key> (N016-0048)
GBGNHQGRWGJVAE-XBCHRGKOSA-N

>  <PERCENTSP3> (N016-0048)
80

$$$$

  -ISIS-  -- StrEd -- 

 91 97  0  0  0  0  0  0  0  0999 V2000
    1.6029    2.0124    0.0000 C   0  0  0  0  0  0  0  0  0  0  0  0
    0.8518    0.6961    0.0000 C   0  0  1  0  0  0  0  0  0  0  0  0
    1.6029    1.1179    0.0000 C   0  0  2  0  0  0  0  0  0  0  0  0
   -0.6665    0.6961    0.0000 C   0  0  2  0  0  0  0  0  0  0  0  0
   -4.9606   -1.1091    0.0000 C   0  0  0  0  0  0  0  0  0  0  0  0
   -5.5427   -4.7287    0.0000 C   0  0  0  0  0  0  0  0  0  0  0  0
   -3.7626   -2.7036    0.0000 C   0  0  0  0  0  0  0  0  0  0  0  0
    0.1013    1.1179    0.0000 C   0  0  0  0  0  0  0  0  0  0  0  0
   -3.7456   -5.5636    0.0000 C   0  0  0  0  0  0  0  0  0  0  0  0
   -3.1130   -1.9359    0.0000 C   0  0  0  0  0  0  0  0  0  0  0  0
   -4.3700   -4.7287    0.0000 O   0  0  0  0  0  0  0  0  0  0  0  0
   -3.7626   -1.1091    0.0000 O   0  0  0  0  0  0  0  0  0  0  0  0
    0.8518    2.4759    0.0000 C   0  0  0  0  0  0  0  0  0  0  0  0
   -4.3700   -6.3903    0.0000 C   0  0  0  0  0  0  0  0  0  0  0  0
    0.1013    2.0124    0.0000 C   0  0  0  0  0  0  0  0  0  0  0  0
   -5.6101   -1.9359    0.0000 C   0  0  0  0  0  0  0  0  0  0  0  0
   -6.2345   -5.5636    0.0000 C   0  0  0  0  0  0  0  0  0  0  0  0
   -4.9606   -2.7036    0.0000 C   0  0  0  0  0  0  0  0  0  0  0  0
   -0.6665   -0.2740    0.0000 C   0  0  0  0  0  0  0  0  0  0  0  0
    2.5730    2.6785    0.0000 C   0  0  0  0  0  0  0  0  0  0  0  0
   -4.9606   -0.6033    0.0000 C   0  0  0  0  0  0  0  0  0  0  0  0
   -5.5427   -4.2055    0.0000 C   0  0  0  0  0  0  0  0  0  0  0  0
   -5.5427   -6.3903    0.0000 C   0  0  0  0  0  0  0  0  0  0  0  0
   -3.7456   -4.0792    0.0000 O   0  0  0  0  0  0  0  0  0  0  0  0
   -1.4765   -0.7635    0.0000 C   0  0  2  0  0  0  0  0  0  0  0  0
    4.4375    4.9307    0.0000 C   0  0  0  0  0  0  0  0  0  0  0  0
    3.5264    4.2984    0.0000 C   0  0  2  0  0  0  0  0  0  0  0  0
   -6.2766   -3.8173    0.0000 N   0  0  0  0  0  0  0  0  0  0  0  0
   -5.4668   -0.3335    0.0000 N   0  0  0  0  0  0  0  0  0  0  0  0
    2.5730    3.7753    0.0000 C   0  0  0  0  0  0  0  0  0  0  0  0
    5.8968    4.1971    0.0000 N   0  0  0  0  0  0  0  0  0  0  0  0
    3.5264    2.1303    0.0000 C   0  0  1  0  0  0  0  0  0  0  0  0
   -3.1130   -0.7635    0.0000 O   0  0  0  0  0  0  0  0  0  0  0  0
   -2.2440   -0.2740    0.0000 C   0  0  0  0  0  0  0  0  0  0  0  0
   -7.2636   -3.8173    0.0000 C   0  0  0  0  0  0  0  0  0  0  0  0
   -5.4668    0.6371    0.0000 C   0  0  0  0  0  0  0  0  0  0  0  0
    6.7235    4.6860    0.0000 C   0  0  0  0  0  0  0  0  0  0  0  0
    7.2297    3.8345    0.0000 C   0  0  0  0  0  0  0  0  0  0  0  0
   -8.2167   -3.8173    0.0000 C   0  0  0  0  0  0  0  0  0  0  0  0
   -5.4668    1.6069    0.0000 C   0  0  0  0  0  0  0  0  0  0  0  0
    0.8518   -0.2740    0.0000 C   0  0  0  0  0  0  0  0  0  0  0  0
   -1.4765    1.1179    0.0000 C   0  0  0  0  0  0  0  0  0  0  0  0
    2.5730    0.4766    0.0000 C   0  0  0  0  0  0  0  0  0  0  0  0
   -7.2636   -2.8303    0.0000 C   0  0  0  0  0  0  0  0  0  0  0  0
   -6.4368    0.6371    0.0000 C   0  0  0  0  0  0  0  0  0  0  0  0
    6.2173    5.5382    0.0000 C   0  0  0  0  0  0  0  0  0  0  0  0
    0.1013   -0.7635    0.0000 C   0  0  0  0  0  0  0  0  0  0  0  0
   -4.5977    2.0710    0.0000 C   0  0  0  0  0  0  0  0  0  0  0  0
   -8.7062   -4.6691    0.0000 C   0  0  0  0  0  0  0  0  0  0  0  0
    8.2254    3.8345    0.0000 C   0  0  0  0  0  0  0  0  0  0  0  0
   -0.8521    2.5603    0.0000 O   0  0  0  0  0  0  0  0  0  0  0  0
   -4.3531   -0.2322    0.0000 O   0  0  0  0  0  0  0  0  0  0  0  0
   -4.9183   -3.6147    0.0000 O   0  0  0  0  0  0  0  0  0  0  0  0
    3.5264    1.0166    0.0000 C   0  0  0  0  0  0  0  0  0  0  0  0
   -2.2440    0.6961    0.0000 C   0  0  0  0  0  0  0  0  0  0  0  0
    4.4375    6.1033    0.0000 O   0  0  0  0  0  0  0  0  0  0  0  0
    4.4795    3.7753    0.0000 C   0  0  0  0  0  0  0  0  0  0  0  0
    4.4795    2.6785    0.0000 C   0  0  0  0  0  0  0  0  0  0  0  0
    5.3486    5.5382    0.0000 O   0  0  0  0  0  0  0  0  0  0  0  0
   -6.4199   -2.3241    0.0000 O   0  0  0  0  0  0  0  0  0  0  0  0
   -6.9261   -0.2150    0.0000 O   0  0  0  0  0  0  0  0  0  0  0  0
   -9.6763   -4.6691    0.0000 O   0  0  0  0  0  0  0  0  0  0  0  0
    8.7059    4.6860    0.0000 O   0  0  0  0  0  0  0  0  0  0  0  0
   -3.7456    1.5482    0.0000 O   0  0  0  0  0  0  0  0  0  0  0  0
   -4.3700   -7.2173    0.0000 O   0  0  0  0  0  0  0  0  0  0  0  0
   -6.2345   -6.6095    0.0000 O   0  0  0  0  0  0  0  0  0  0  0  0
   -5.5847   -2.8639    0.0000 O   0  0  0  0  0  0  0  0  0  0  0  0
   -4.9606   -1.8769    0.0000 O   0  0  0  0  0  0  0  0  0  0  0  0
   -5.5427   -5.5636    0.0000 O   0  0  0  0  0  0  0  0  0  0  0  0
    0.8518    1.5482    0.0000 C   0  0  0  0  0  0  0  0  0  0  0  0
   -0.6665    1.6069    0.0000 C   0  0  0  0  0  0  0  0  0  0  0  0
    1.6196    0.0889    0.0000 C   0  0  0  0  0  0  0  0  0  0  0  0
    6.7069    6.3652    0.0000 O   0  0  0  0  0  0  0  0  0  0  0  0
   -8.0733   -2.3241    0.0000 O   0  0  0  0  0  0  0  0  0  0  0  0
   -6.9430    1.4638    0.0000 O   0  0  0  0  0  0  0  0  0  0  0  0
   -4.5977    3.0668    0.0000 O   0  0  0  0  0  0  0  0  0  0  0  0
   -8.2167   -5.5215    0.0000 O   0  0  0  0  0  0  0  0  0  0  0  0
    8.6893    2.9821    0.0000 O   0  0  0  0  0  0  0  0  0  0  0  0
   -2.0248   -1.8515    0.0000 C   0  0  0  0  0  0  0  0  0  0  0  0
   -0.8101   -1.6746    0.0000 C   0  0  0  0  0  0  0  0  0  0  0  0
    2.5730    4.9056    0.0000 C   0  0  0  0  0  0  0  0  0  0  0  0
    4.5977    1.4892    0.0000 C   0  0  0  0  0  0  0  0  0  0  0  0
   -7.9385    1.4892    0.0000 C   0  0  0  0  0  0  0  0  0  0  0  0
   -8.9508   -2.7880    0.0000 C   0  0  0  0  0  0  0  0  0  0  0  0
    6.2342    7.2173    0.0000 C   0  0  0  0  0  0  0  0  0  0  0  0
   -5.4668    3.5896    0.0000 C   0  0  0  0  0  0  0  0  0  0  0  0
    9.6763    2.9652    0.0000 C   0  0  0  0  0  0  0  0  0  0  0  0
   -8.7483   -6.3733    0.0000 C   0  0  0  0  0  0  0  0  0  0  0  0
    7.5502    5.1671    0.0000 H   0  0  0  0  0  0  0  0  0  0  0  0
   -7.2636   -4.8127    0.0000 H   0  0  0  0  0  0  0  0  0  0  0  0
   -4.4964    0.6371    0.0000 H   0  0  0  0  0  0  0  0  0  0  0  0
  2  3  1  0  0  0  0
  3  1  1  0  0  0  0
  8  4  1  0  0  0  0
  5 12  1  0  0  0  0
  6 11  1  0  0  0  0
  7 10  1  0  0  0  0
  8 15  1  0  0  0  0
  9 24  1  0  0  0  0
 10 33  1  0  0  0  0
 11  9  1  0  0  0  0
 12 10  1  0  0  0  0
 13  1  2  0  0  0  0
 14  9  1  0  0  0  0
 15 13  1  0  0  0  0
 16  5  1  0  0  0  0
 17 23  1  0  0  0  0
 18  7  1  0  0  0  0
 19  4  1  0  0  0  0
 20  1  1  0  0  0  0
  5 21  1  0  0  0  0
  6 22  1  0  0  0  0
 23 14  1  0  0  0  0
  7 24  1  0  0  0  0
 25 19  1  0  0  0  0
 26 27  1  0  0  0  0
 27 30  1  0  0  0  0
 28 22  1  0  0  0  0
 29 21  1  0  0  0  0
 30 20  1  0  0  0  0
 31 26  1  0  0  0  0
 32 20  1  0  0  0  0
 34 33  1  0  0  0  0
 34 55  1  0  0  0  0
 35 28  1  0  0  0  0
 36 29  1  0  0  0  0
 37 31  1  0  0  0  0
 37 38  1  0  0  0  0
 39 35  1  0  0  0  0
 40 36  1  0  0  0  0
 41  2  1  0  0  0  0
 42  4  1  0  0  0  0
 43  3  1  0  0  0  0
 44 35  1  0  0  0  0
 45 36  1  0  0  0  0
 46 37  1  0  0  0  0
 47 41  1  0  0  0  0
 48 40  1  0  0  0  0
 49 39  1  0  0  0  0
 50 38  1  0  0  0  0
 51 15  2  0  0  0  0
 52 21  2  0  0  0  0
 53 22  2  0  0  0  0
 54 32  1  0  0  0  0
 55 42  1  0  0  0  0
 56 26  2  0  0  0  0
 57 58  1  0  0  0  0
 58 32  1  0  0  0  0
 59 46  2  0  0  0  0
 60 44  2  0  0  0  0
 61 45  2  0  0  0  0
 62 49  2  0  0  0  0
 63 50  2  0  0  0  0
 64 48  2  0  0  0  0
 14 65  1  0  0  0  0
 17 66  1  0  0  0  0
 16 67  1  0  0  0  0
 18 68  1  0  0  0  0
 23 69  1  0  0  0  0
  2 70  1  1  0  0  0
  4 71  1  1  0  0  0
  3 72  1  6  0  0  0
 73 46  1  0  0  0  0
 74 44  1  0  0  0  0
 75 45  1  0  0  0  0
 76 48  1  0  0  0  0
 77 49  1  0  0  0  0
 78 50  1  0  0  0  0
 25 79  1  1  0  0  0
 25 80  1  6  0  0  0
 27 81  1  6  0  0  0
 32 82  1  1  0  0  0
 83 75  1  0  0  0  0
 84 74  1  0  0  0  0
 85 73  1  0  0  0  0
 86 76  1  0  0  0  0
 87 78  1  0  0  0  0
 88 77  1  0  0  0  0
 89 37  1  0  0  0  0
 90 35  1  0  0  0  0
 91 36  1  0  0  0  0
 54 43  1  0  0  0  0
  8  2  1  0  0  0  0
 57 27  1  0  0  0  0
 19 47  1  0  0  0  0
 34 25  1  0  0  0  0
 18 16  1  0  0  0  0
 17  6  1  0  0  0  0
M  END
>  <IDNUMBER> (N016-0063)
N016-0063

>  <available> (N016-0063)
537

>  <H_acceptor> (N016-0063)
25

>  <H_donor> (N016-0063)
8

>  <B_rotN> (N016-0063)
33

>  <N_O> (N016-0063)
28

>  <logP> (N016-0063)
0.3

>  <logD> (N016-0063)
0.53

>  <logSw> (N016-0063)
-7.22

>  <PSA> (N016-0063)
400.24

>  <Chiral_centers> (N016-0063)
22

>  <Name> (N016-0063)
1,4-dimethyl 2-{[10-({6-[(1,4-dimethoxy-1,4-dioxobutan-2-yl)carbamoyl]-3-({6-[(1,4-dimethoxy-1,4-dioxobutan-2-yl)carbamoyl]-3,4,5-trihydroxyoxan-2-yl}oxy)-4,5-dihydroxyoxan-2-yl}oxy)-2,4a,6a,6b,9,9,12
a-heptamethyl-13-oxo-1,2,3,4,4a,5,6,6a,6b,7,8,8a,9,10,11,12,12a,12b,13,14b-icosahydropicen-2-yl]formamido}butanedioate

>  <Smile> (N016-0063)
COC(CC(NC(C1OC(OC2C(OC3C(C4C(C5C(C)(CC4)C4(C(C6CC(C(NC(C(=O)OC)CC(=O)OC)=O)(C)CCC6(CC4)C)=CC5=O)C)(C)CC3)(C)C)OC(C(O)C2O)C(NC(C(=O)OC)CC(=O)OC)=O)C(O)C(C1O)O)=O)C(=O)OC)=O

>  <Collection> (N016-0063)
DC

>  <InChI Key> (N016-0063)
MUXUTYDFBZFEKV-HXYZGGASSA-N

>  <PERCENTSP3> (N016-0063)
80

$$$$

  -ISIS-  -- StrEd -- 

 27 31  0  0  0  0  0  0  0  0999 V2000
    2.9427    1.7846    0.0000 C   0  0  0  0  0  0  0  0  0  0  0  0
    2.0232    1.4849    0.0000 C   0  0  0  0  0  0  0  0  0  0  0  0
    4.0529    1.8459    0.0000 O   0  0  0  0  0  0  0  0  0  0  0  0
    3.5419    1.0286    0.0000 C   0  0  0  0  0  0  0  0  0  0  0  0
    2.0232    0.4905    0.0000 C   0  0  0  0  0  0  0  0  0  0  0  0
   -0.5721    0.0136    0.0000 C   0  0  0  0  0  0  0  0  0  0  0  0
   -0.5721   -1.0490    0.0000 C   0  0  0  0  0  0  0  0  0  0  0  0
    0.2588    0.4905    0.0000 C   0  0  0  0  0  0  0  0  0  0  0  0
    1.1444    0.0136    0.0000 C   0  0  0  0  0  0  0  0  0  0  0  0
    2.9769    0.2315    0.0000 C   0  0  0  0  0  0  0  0  0  0  0  0
    1.1444    2.0094    0.0000 C   0  0  0  0  0  0  0  0  0  0  0  0
    0.2588   -1.5190    0.0000 C   0  0  0  0  0  0  0  0  0  0  0  0
    2.9427    2.6837    0.0000 C   0  0  0  0  0  0  0  0  0  0  0  0
    1.1444   -1.0490    0.0000 C   0  0  0  0  0  0  0  0  0  0  0  0
    0.2588    1.4849    0.0000 C   0  0  0  0  0  0  0  0  0  0  0  0
   -1.4577    0.4905    0.0000 C   0  0  0  0  0  0  0  0  0  0  0  0
   -1.4577   -1.5190    0.0000 C   0  0  0  0  0  0  0  0  0  0  0  0
   -3.2218   -2.5475    0.0000 C   0  0  0  0  0  0  0  0  0  0  0  0
   -3.2218   -1.5667    0.0000 O   0  0  0  0  0  0  0  0  0  0  0  0
   -2.3568   -1.0490    0.0000 C   0  0  0  0  0  0  0  0  0  0  0  0
    3.8418    3.1199    0.0000 O   0  0  0  0  0  0  0  0  0  0  0  0
   -2.4048   -3.1537    0.0000 O   0  0  0  0  0  0  0  0  0  0  0  0
    2.0232    2.5202    0.0000 C   0  0  0  0  0  0  0  0  0  0  0  0
   -2.3568    0.0136    0.0000 C   0  0  0  0  0  0  0  0  0  0  0  0
   -0.5721    0.9671    0.0000 C   0  0  0  0  0  0  0  0  0  0  0  0
    2.0776    3.1537    0.0000 C   0  0  0  0  0  0  0  0  0  0  0  0
   -4.0529   -3.0244    0.0000 C   0  0  0  0  0  0  0  0  0  0  0  0
  2  1  1  0  0  0  0
  3  1  1  0  0  0  0
  4  1  1  0  0  0  0
  5  2  1  0  0  0  0
  8  6  1  0  0  0  0
  7  6  1  0  0  0  0
  8 15  1  0  0  0  0
  9  5  1  0  0  0  0
 10  4  1  0  0  0  0
 11  2  1  0  0  0  0
 12 14  1  0  0  0  0
 13  1  1  0  0  0  0
 14  9  1  0  0  0  0
 15 11  1  0  0  0  0
 16  6  1  0  0  0  0
 17  7  1  0  0  0  0
 18 19  1  0  0  0  0
 20 19  1  0  0  0  0
 20 24  1  0  0  0  0
 21 13  2  0  0  0  0
 22 18  2  0  0  0  0
  2 23  1  0  0  0  0
 24 16  1  0  0  0  0
  6 25  1  0  0  0  0
 26 13  1  0  0  0  0
 27 18  1  0  0  0  0
  3  4  1  0  0  0  0
 10  5  1  0  0  0  0
  8  9  1  0  0  0  0
  7 12  2  0  0  0  0
 17 20  1  0  0  0  0
M  END
>  <IDNUMBER> (N017-0009)
N017-0009

>  <available> (N017-0009)
118

>  <H_acceptor> (N017-0009)
4

>  <H_donor> (N017-0009)
0

>  <B_rotN> (N017-0009)
3

>  <N_O> (N017-0009)
4

>  <logP> (N017-0009)
2.93

>  <logD> (N017-0009)
4.48

>  <logSw> (N017-0009)
-5.3

>  <PSA> (N017-0009)
55.9

>  <Chiral_centers> (N017-0009)
8

>  <Name> (N017-0009)
6b-acetyl-4a,6a-dimethyl-2,3,4,4a,4b,5,6,6a,6b,7a,8,8a,8b,9-tetradecahydro-1H-naphtho[2',1':4,5]indeno[1,2-b]oxiren-2-yl acetate

>  <Smile> (N017-0009)
CC(OC1CC2C(C3C(C4C(C5(C(=O)C)C(O5)C4)(C)CC3)CC=2)(CC1)C)=O

>  <Collection> (N017-0009)
DC

>  <InChI Key> (N017-0009)
YRLVTBXOGJMZNC-UHFFFAOYSA-N

>  <PERCENTSP3> (N017-0009)
82.6

$$$$

  -ISIS-  -- StrEd -- 

 24 27  0  0  0  0  0  0  0  0999 V2000
    1.3715    0.6926    0.0000 C   0  0  0  0  0  0  0  0  0  0  0  0
    1.3715   -0.3035    0.0000 C   0  0  0  0  0  0  0  0  0  0  0  0
    2.2925    0.9927    0.0000 C   0  0  0  0  0  0  0  0  0  0  0  0
   -1.2281   -0.7812    0.0000 C   0  0  0  0  0  0  0  0  0  0  0  0
    2.8928    0.2354    0.0000 C   0  0  0  0  0  0  0  0  0  0  0  0
   -1.2281   -1.8456    0.0000 C   0  0  0  0  0  0  0  0  0  0  0  0
   -0.3957   -0.3035    0.0000 C   0  0  0  0  0  0  0  0  0  0  0  0
    0.4913   -0.7812    0.0000 C   0  0  0  0  0  0  0  0  0  0  0  0
    2.3266   -0.5629    0.0000 C   0  0  0  0  0  0  0  0  0  0  0  0
    0.4913    1.2178    0.0000 C   0  0  0  0  0  0  0  0  0  0  0  0
   -0.3957   -2.3163    0.0000 C   0  0  0  0  0  0  0  0  0  0  0  0
    0.4913   -1.8456    0.0000 C   0  0  0  0  0  0  0  0  0  0  0  0
   -0.3957    0.6926    0.0000 C   0  0  0  0  0  0  0  0  0  0  0  0
   -2.1149   -0.3035    0.0000 C   0  0  0  0  0  0  0  0  0  0  0  0
    2.2925    1.8932    0.0000 C   0  0  0  0  0  0  0  0  0  0  0  0
   -2.1149   -2.3163    0.0000 C   0  0  0  0  0  0  0  0  0  0  0  0
    3.1932    2.3299    0.0000 O   0  0  0  0  0  0  0  0  0  0  0  0
    1.3715    1.7295    0.0000 C   0  0  0  0  0  0  0  0  0  0  0  0
   -3.0157   -0.7812    0.0000 C   0  0  0  0  0  0  0  0  0  0  0  0
   -3.0157   -1.8456    0.0000 C   0  0  0  0  0  0  0  0  0  0  0  0
    3.8822    0.2354    0.0000 C   0  0  0  0  0  0  0  0  0  0  0  0
   -1.2281    0.1738    0.0000 C   0  0  0  0  0  0  0  0  0  0  0  0
   -3.8822   -2.3641    0.0000 O   0  0  0  0  0  0  0  0  0  0  0  0
    1.4258    2.3641    0.0000 C   0  0  0  0  0  0  0  0  0  0  0  0
  2  1  1  0  0  0  0
  3  1  1  0  0  0  0
  4  7  1  0  0  0  0
  5  3  2  0  0  0  0
  6  4  1  0  0  0  0
  7 13  1  0  0  0  0
  8  2  1  0  0  0  0
  9  2  1  0  0  0  0
 10  1  1  0  0  0  0
 11 12  1  0  0  0  0
 12  8  1  0  0  0  0
 13 10  1  0  0  0  0
 14  4  1  0  0  0  0
 15  3  1  0  0  0  0
 16  6  1  0  0  0  0
 17 15  2  0  0  0  0
 18  1  1  0  0  0  0
 19 14  1  0  0  0  0
 20 19  1  0  0  0  0
 21  5  1  0  0  0  0
 22  4  1  0  0  0  0
 23 20  1  0  0  0  0
 24 15  1  0  0  0  0
  9  5  1  0  0  0  0
  7  8  1  0  0  0  0
  6 11  2  0  0  0  0
 16 20  1  0  0  0  0
M  END
>  <IDNUMBER> (N017-0010)
N017-0010

>  <available> (N017-0010)
101

>  <H_acceptor> (N017-0010)
2

>  <H_donor> (N017-0010)
1

>  <B_rotN> (N017-0010)
2

>  <N_O> (N017-0010)
2

>  <logP> (N017-0010)
4.69

>  <logD> (N017-0010)
4.69

>  <logSw> (N017-0010)
-5.06

>  <PSA> (N017-0010)
37.3

>  <Chiral_centers> (N017-0010)
6

>  <Name> (N017-0010)
1-{7-hydroxy-2,9a,11a-trimethyl-3H,3aH,3bH,4H,6H,7H,8H,9H,9aH,9bH,10H,11H,11aH-cyclopenta[a]phenanthren-1-yl}ethan-1-one

>  <Smile> (N017-0010)
C1/2(C(C3C(C4(/C(=C\C3)/CC(CC4)O)C)CC1)C/C(=C2/C(=O)C)/C)C

>  <Collection> (N017-0010)
DC

>  <InChI Key> (N017-0010)
WYOKDIKHIXWWOC-UHFFFAOYSA-N

>  <PERCENTSP3> (N017-0010)
77.273

$$$$

  -ISIS-  -- StrEd -- 

 30 34  0  0  0  0  0  0  0  0999 V2000
    1.5842    1.1226    0.0000 C   0  0  0  0  0  0  0  0  0  0  0  0
    1.5842    0.1383    0.0000 C   0  0  0  0  0  0  0  0  0  0  0  0
    2.4942    1.4191    0.0000 C   0  0  0  0  0  0  0  0  0  0  0  0
   -0.9843   -0.3337    0.0000 C   0  0  0  0  0  0  0  0  0  0  0  0
   -0.9843   -1.3855    0.0000 C   0  0  0  0  0  0  0  0  0  0  0  0
   -0.1619    0.1383    0.0000 C   0  0  0  0  0  0  0  0  0  0  0  0
    0.7145   -0.3337    0.0000 C   0  0  0  0  0  0  0  0  0  0  0  0
    3.0876    0.6708    0.0000 C   0  0  0  0  0  0  0  0  0  0  0  0
    2.5280   -0.1180    0.0000 C   0  0  0  0  0  0  0  0  0  0  0  0
    0.7145    1.6416    0.0000 C   0  0  0  0  0  0  0  0  0  0  0  0
   -0.1619   -1.8505    0.0000 C   0  0  0  0  0  0  0  0  0  0  0  0
    0.7145   -1.3855    0.0000 C   0  0  0  0  0  0  0  0  0  0  0  0
   -0.1619    1.1226    0.0000 C   0  0  0  0  0  0  0  0  0  0  0  0
   -1.8607    0.1383    0.0000 C   0  0  0  0  0  0  0  0  0  0  0  0
    1.9888    2.7270    0.0000 C   0  0  0  0  0  0  0  0  0  0  0  0
   -1.8607   -1.8505    0.0000 C   0  0  0  0  0  0  0  0  0  0  0  0
   -3.6069   -2.8686    0.0000 C   0  0  0  0  0  0  0  0  0  0  0  0
   -3.6069   -1.8977    0.0000 O   0  0  0  0  0  0  0  0  0  0  0  0
   -2.7508   -1.3855    0.0000 C   0  0  0  0  0  0  0  0  0  0  0  0
   -2.7842   -3.4551    0.0000 O   0  0  0  0  0  0  0  0  0  0  0  0
    2.5888    3.4551    0.0000 O   0  0  0  0  0  0  0  0  0  0  0  0
    1.5842    2.1470    0.0000 C   0  0  0  0  0  0  0  0  0  0  0  0
   -2.7508   -0.3337    0.0000 C   0  0  0  0  0  0  0  0  0  0  0  0
    2.8314    2.3361    0.0000 C   0  0  0  0  0  0  0  0  0  0  0  0
   -0.9843    0.6101    0.0000 C   0  0  0  0  0  0  0  0  0  0  0  0
    4.0787    0.8193    0.0000 C   0  0  0  0  0  0  0  0  0  0  0  0
   -4.4158   -3.3403    0.0000 C   0  0  0  0  0  0  0  0  0  0  0  0
    0.9909    2.7406    0.0000 C   0  0  0  0  0  0  0  0  0  0  0  0
    3.8021    2.4709    0.0000 C   0  0  0  0  0  0  0  0  0  0  0  0
    4.4158    1.7224    0.0000 C   0  0  0  0  0  0  0  0  0  0  0  0
  2  1  1  0  0  0  0
  3  1  1  0  0  0  0
  6  4  1  0  0  0  0
  5  4  1  0  0  0  0
  6 13  1  0  0  0  0
  7  2  1  0  0  0  0
  8  3  1  0  0  0  0
  9  2  1  0  0  0  0
 10  1  1  0  0  0  0
 11 12  1  0  0  0  0
 12  7  1  0  0  0  0
 13 10  1  0  0  0  0
 14  4  1  0  0  0  0
  3 15  1  0  0  0  0
 16  5  1  0  0  0  0
 17 18  1  0  0  0  0
 19 18  1  0  0  0  0
 19 23  1  0  0  0  0
 20 17  2  0  0  0  0
 21 15  2  0  0  0  0
  1 22  1  0  0  0  0
 23 14  1  0  0  0  0
 24  3  1  0  0  0  0
  4 25  1  0  0  0  0
 26  8  1  0  0  0  0
 27 17  1  0  0  0  0
 28 15  1  0  0  0  0
 29 24  1  0  0  0  0
 30 29  1  0  0  0  0
  8  9  1  0  0  0  0
  7  6  1  0  0  0  0
 26 30  1  0  0  0  0
 11  5  2  0  0  0  0
 19 16  1  0  0  0  0
M  END
>  <IDNUMBER> (N017-0017)
N017-0017

>  <available> (N017-0017)
124

>  <H_acceptor> (N017-0017)
3

>  <H_donor> (N017-0017)
0

>  <B_rotN> (N017-0017)
3

>  <N_O> (N017-0017)
3

>  <logP> (N017-0017)
5.07

>  <logD> (N017-0017)
6.94

>  <logSw> (N017-0017)
-8.6

>  <PSA> (N017-0017)
43.37

>  <Chiral_centers> (N017-0017)
8

>  <Name> (N017-0017)
6b-acetyl-4a,6a-dimethyl-1H,2H,3H,4H,4aH,4bH,5H,6H,6aH,6bH,7H,8H,9H,10H,10aH,11H,11aH,11bH,12H-indeno[2,1-a]phenanthren-2-yl acetate

>  <Smile> (N017-0017)
C1CC2C(C3(C)CCC4C5(C)C(=CCC4C3C2)CC(OC(=O)C)CC5)(C(=O)C)CC1

>  <Collection> (N017-0017)
DC

>  <InChI Key> (N017-0017)
HONOKMUVEQPOAM-UHFFFAOYSA-N

>  <PERCENTSP3> (N017-0017)
85.2

$$$$

  -ISIS-  -- StrEd -- 

 29 33  0  0  0  0  0  0  0  0999 V2000
    1.1790    0.8152    0.0000 C   0  0  0  0  0  0  0  0  0  0  0  0
   -1.3877   -0.6398    0.0000 C   0  0  0  0  0  0  0  0  0  0  0  0
   -1.3877   -1.6909    0.0000 C   0  0  0  0  0  0  0  0  0  0  0  0
    1.1790   -0.1684    0.0000 C   0  0  0  0  0  0  0  0  0  0  0  0
    2.0884    1.1115    0.0000 C   0  0  0  0  0  0  0  0  0  0  0  0
    0.3100   -0.6398    0.0000 C   0  0  0  0  0  0  0  0  0  0  0  0
   -0.5658   -0.1684    0.0000 C   0  0  0  0  0  0  0  0  0  0  0  0
    2.6813    0.3638    0.0000 C   0  0  0  0  0  0  0  0  0  0  0  0
    2.1220   -0.4245    0.0000 C   0  0  0  0  0  0  0  0  0  0  0  0
    0.3100   -1.6909    0.0000 C   0  0  0  0  0  0  0  0  0  0  0  0
   -0.5658   -2.1557    0.0000 C   0  0  0  0  0  0  0  0  0  0  0  0
    0.3100    1.3338    0.0000 C   0  0  0  0  0  0  0  0  0  0  0  0
   -2.2635   -2.1557    0.0000 C   0  0  0  0  0  0  0  0  0  0  0  0
   -0.5658    0.8152    0.0000 C   0  0  0  0  0  0  0  0  0  0  0  0
   -2.2635   -0.1684    0.0000 C   0  0  0  0  0  0  0  0  0  0  0  0
    1.5832    2.4185    0.0000 C   0  0  0  0  0  0  0  0  0  0  0  0
   -3.1529   -1.6909    0.0000 C   0  0  0  0  0  0  0  0  0  0  0  0
   -1.4080   -2.6408    0.0000 O   0  0  0  0  0  0  0  0  0  0  0  0
    2.1828    3.1460    0.0000 O   0  0  0  0  0  0  0  0  0  0  0  0
   -4.0084   -2.2029    0.0000 O   0  0  0  0  0  0  0  0  0  0  0  0
    1.1790    1.8390    0.0000 C   0  0  0  0  0  0  0  0  0  0  0  0
   -3.1529   -0.6398    0.0000 C   0  0  0  0  0  0  0  0  0  0  0  0
   -1.3877    0.3030    0.0000 C   0  0  0  0  0  0  0  0  0  0  0  0
    2.4252    2.0278    0.0000 C   0  0  0  0  0  0  0  0  0  0  0  0
    3.6715    0.5120    0.0000 C   0  0  0  0  0  0  0  0  0  0  0  0
   -0.5658   -3.1460    0.0000 C   0  0  0  0  0  0  0  0  0  0  0  0
    0.5861    2.4320    0.0000 C   0  0  0  0  0  0  0  0  0  0  0  0
    3.3953    2.1625    0.0000 C   0  0  0  0  0  0  0  0  0  0  0  0
    4.0084    1.4146    0.0000 C   0  0  0  0  0  0  0  0  0  0  0  0
  2  7  1  0  0  0  0
  3  2  1  0  0  0  0
  4  1  1  0  0  0  0
  5  1  1  0  0  0  0
  6  4  1  0  0  0  0
  7 14  1  0  0  0  0
  8  5  1  0  0  0  0
  9  4  1  0  0  0  0
 10  6  1  0  0  0  0
 11 10  1  0  0  0  0
 12  1  1  0  0  0  0
 13  3  1  0  0  0  0
 14 12  1  0  0  0  0
 15  2  1  0  0  0  0
 16  5  1  0  0  0  0
 17 22  1  0  0  0  0
 18  3  1  0  0  0  0
 19 16  2  0  0  0  0
 20 17  2  0  0  0  0
 21  1  1  0  0  0  0
 22 15  1  0  0  0  0
 23  2  1  0  0  0  0
 24  5  1  0  0  0  0
 25  8  1  0  0  0  0
 26 11  1  0  0  0  0
 27 16  1  0  0  0  0
 28 24  1  0  0  0  0
 29 28  1  0  0  0  0
  8  9  1  0  0  0  0
  6  7  1  0  0  0  0
 25 29  1  0  0  0  0
 11  3  1  0  0  0  0
 17 13  1  0  0  0  0
M  END
>  <IDNUMBER> (N017-0021)
N017-0021

>  <available> (N017-0021)
58

>  <H_acceptor> (N017-0021)
3

>  <H_donor> (N017-0021)
1

>  <B_rotN> (N017-0021)
2

>  <N_O> (N017-0021)
3

>  <logP> (N017-0021)
4.07

>  <logD> (N017-0021)
4.07

>  <logSw> (N017-0021)
-4.73

>  <PSA> (N017-0021)
54.37

>  <Chiral_centers> (N017-0021)
9

>  <Name> (N017-0021)
(13aR)-6b-acetyl-13a-hydroxy-4a,6a,13-trimethylicosahydro-2H-indeno[2,1-a]phenanthren-2-one

>  <Smile> (N017-0021)
C12(C(C3C(C4(C(C(C3)C)(CC(=O)CC4)O)C)CC1)CC1C2(C(=O)C)CCCC1)C

>  <Collection> (N017-0021)
NC

>  <InChI Key> (N017-0021)
YYJQALYDDZZWSF-UHFFFAOYSA-N

>  <PERCENTSP3> (N017-0021)
92.308

$$$$

  -ISIS-  -- StrEd -- 

 47 51  0  0  0  0  0  0  0  0999 V2000
    2.9990   -1.6565    0.0000 C   0  0  0  0  0  0  0  0  0  0  0  0
    0.3588   -0.8099    0.0000 C   0  0  0  0  0  0  0  0  0  0  0  0
    3.7672   -2.1104    0.0000 C   0  0  0  0  0  0  0  0  0  0  0  0
    2.2311   -2.1104    0.0000 C   0  0  0  0  0  0  0  0  0  0  0  0
    2.9990   -0.7819    0.0000 C   0  0  0  0  0  0  0  0  0  0  0  0
   -0.3925   -1.7630    0.0000 C   0  0  0  0  0  0  0  0  0  0  0  0
   -3.5430   -0.3783    0.0000 C   0  0  0  0  0  0  0  0  0  0  0  0
   -4.9836   -0.3783    0.0000 C   0  0  0  0  0  0  0  0  0  0  0  0
    4.5465   -0.7819    0.0000 C   0  0  0  0  0  0  0  0  0  0  0  0
    4.5465   -1.6565    0.0000 C   0  0  0  0  0  0  0  0  0  0  0  0
   -5.7458    0.6027    0.0000 C   0  0  0  0  0  0  0  0  0  0  0  0
   -1.8163   -1.7630    0.0000 C   0  0  0  0  0  0  0  0  0  0  0  0
    3.7672   -0.3221    0.0000 O   0  0  0  0  0  0  0  0  0  0  0  0
    1.4631   -0.7819    0.0000 C   0  0  0  0  0  0  0  0  0  0  0  0
    1.4631   -1.6565    0.0000 C   0  0  0  0  0  0  0  0  0  0  0  0
   -2.7748    0.6027    0.0000 C   0  0  0  0  0  0  0  0  0  0  0  0
   -0.3925    0.2162    0.0000 O   0  0  0  0  0  0  0  0  0  0  0  0
   -2.5842   -0.8099    0.0000 C   0  0  0  0  0  0  0  0  0  0  0  0
   -3.5430    1.6288    0.0000 O   0  0  0  0  0  0  0  0  0  0  0  0
   -1.8163    0.2162    0.0000 C   0  0  0  0  0  0  0  0  0  0  0  0
    2.2311   -0.3221    0.0000 C   0  0  0  0  0  0  0  0  0  0  0  0
    0.3588   -0.1204    0.0000 O   0  0  0  0  0  0  0  0  0  0  0  0
   -4.9836    1.6288    0.0000 C   0  0  0  0  0  0  0  0  0  0  0  0
   -5.7458    1.5051    0.0000 O   0  0  0  0  0  0  0  0  0  0  0  0
   -2.7748    1.2754    0.0000 O   0  0  0  0  0  0  0  0  0  0  0  0
    5.2863   -0.3221    0.0000 C   0  0  0  0  0  0  0  0  0  0  0  0
   -6.6202    2.0045    0.0000 C   0  0  0  0  0  0  0  0  0  0  0  0
    3.7672   -2.9850    0.0000 O   0  0  0  0  0  0  0  0  0  0  0  0
   -1.8163    0.8492    0.0000 C   0  0  0  0  0  0  0  0  0  0  0  0
   -7.5846    1.5724    0.0000 O   0  0  0  0  0  0  0  0  0  0  0  0
    2.2311   -2.9850    0.0000 O   0  0  0  0  0  0  0  0  0  0  0  0
   -0.3925   -2.5423    0.0000 O   0  0  0  0  0  0  0  0  0  0  0  0
   -3.5430   -1.3875    0.0000 O   0  0  0  0  0  0  0  0  0  0  0  0
   -4.9947   -1.3313    0.0000 O   0  0  0  0  0  0  0  0  0  0  0  0
    6.0544   -0.7819    0.0000 C   0  0  0  0  0  0  0  0  0  0  0  0
    5.2863    0.5636    0.0000 C   0  0  0  0  0  0  0  0  0  0  0  0
   -1.8329   -0.7819    0.0000 O   0  0  0  0  0  0  0  0  0  0  0  0
   -2.5842   -1.8021    0.0000 O   0  0  0  0  0  0  0  0  0  0  0  0
    0.6952   -2.0881    0.0000 O   0  0  0  0  0  0  0  0  0  0  0  0
    6.8335    0.5636    0.0000 C   0  0  0  0  0  0  0  0  0  0  0  0
    6.0544    1.0064    0.0000 C   0  0  0  0  0  0  0  0  0  0  0  0
    6.8335   -0.3221    0.0000 C   0  0  0  0  0  0  0  0  0  0  0  0
    7.5846    1.0064    0.0000 O   0  0  0  0  0  0  0  0  0  0  0  0
   -4.9668    0.6869    0.0000 C   0  0  0  0  0  0  0  0  0  0  0  0
   -6.6093    2.9850    0.0000 C   0  0  0  0  0  0  0  0  0  0  0  0
    0.6952   -2.9739    0.0000 C   0  0  0  0  0  0  0  0  0  0  0  0
    7.5846    1.8978    0.0000 C   0  0  0  0  0  0  0  0  0  0  0  0
  2 22  1  0  0  0  0
  3  1  1  0  0  0  0
  4  1  1  0  0  0  0
  5  1  2  0  0  0  0
  6  2  1  0  0  0  0
  7 16  1  0  0  0  0
  8  7  1  0  0  0  0
  9 13  1  0  0  0  0
 10  3  1  0  0  0  0
 11 23  1  0  0  0  0
 12  6  1  0  0  0  0
 13  5  1  0  0  0  0
 14 21  2  0  0  0  0
 15  4  2  0  0  0  0
 16 25  1  0  0  0  0
 17  2  1  0  0  0  0
 18 20  1  0  0  0  0
 19 16  1  0  0  0  0
 20 17  1  0  0  0  0
 21  5  1  0  0  0  0
 22 14  1  0  0  0  0
 23 19  1  0  0  0  0
 11 24  1  0  0  0  0
 25 29  1  0  0  0  0
 26  9  1  0  0  0  0
 27 24  1  0  0  0  0
 28  3  2  0  0  0  0
 20 29  1  0  0  0  0
 30 27  2  0  0  0  0
 31  4  1  0  0  0  0
  6 32  1  0  0  0  0
  7 33  1  0  0  0  0
  8 34  1  0  0  0  0
 35 26  2  0  0  0  0
 36 26  1  0  0  0  0
 12 37  1  0  0  0  0
 18 38  1  0  0  0  0
 39 15  1  0  0  0  0
 40 41  1  0  0  0  0
 41 36  2  0  0  0  0
 42 35  1  0  0  0  0
 43 40  1  0  0  0  0
 23 44  1  0  0  0  0
 45 27  1  0  0  0  0
 46 39  1  0  0  0  0
 47 43  1  0  0  0  0
 14 15  1  0  0  0  0
 10  9  2  0  0  0  0
 42 40  2  0  0  0  0
 18 12  1  0  0  0  0
  8 11  1  0  0  0  0
M  END
>  <IDNUMBER> (N027-0007)
N027-0007

>  <available> (N027-0007)
32

>  <H_acceptor> (N027-0007)
16

>  <H_donor> (N027-0007)
6

>  <B_rotN> (N027-0007)
16

>  <N_O> (N027-0007)
16

>  <logP> (N027-0007)
0.08

>  <logD> (N027-0007)
-1.66

>  <logSw> (N027-0007)
-2.9

>  <PSA> (N027-0007)
229.36

>  <Chiral_centers> (N027-0007)
10

>  <Name> (N027-0007)
4,5-dihydroxy-2-methyl-6-[(3,4,5-trihydroxy-6-{[5-hydroxy-6-methoxy-2-(4-methoxyphenyl)-4-oxo-4H-chromen-7-yl]oxy}oxan-2-yl)methoxy]oxan-3-yl acetate

>  <Smile> (N027-0007)
COc1ccc(C2Oc3c(c(O)c(c(c3)OC3C(C(O)C(C(O3)COC3C(O)C(C(C(O3)C)OC(=O)C)O)O)O)OC)C(=O)C=2)cc1

>  <Collection> (N027-0007)
DC

>  <InChI Key> (N027-0007)
PXJGTASAGKWQQJ-UHFFFAOYSA-N

>  <PERCENTSP3> (N027-0007)
48.4

$$$$

  -ISIS-  -- StrEd -- 

 43 47  0  0  0  0  0  0  0  0999 V2000
    0.7702    1.3121    0.0000 C   0  0  0  0  0  0  0  0  0  0  0  0
    0.7702    2.2134    0.0000 C   0  0  0  0  0  0  0  0  0  0  0  0
   -0.0517    0.8129    0.0000 C   0  0  0  0  0  0  0  0  0  0  0  0
   -0.8676    1.2817    0.0000 C   0  0  0  0  0  0  0  0  0  0  0  0
    1.6166   -2.6821    0.0000 C   0  0  0  0  0  0  0  0  0  0  0  0
   -0.0517    2.7127    0.0000 O   0  0  0  0  0  0  0  0  0  0  0  0
   -0.8676    2.2437    0.0000 C   0  0  0  0  0  0  0  0  0  0  0  0
    1.0139   -3.3943    0.0000 C   0  0  0  0  0  0  0  0  0  0  0  0
   -2.3716   -2.6821    0.0000 C   0  0  0  0  0  0  0  0  0  0  0  0
    1.6166    0.8433    0.0000 O   0  0  0  0  0  0  0  0  0  0  0  0
   -0.0517   -3.3943    0.0000 C   0  0  0  0  0  0  0  0  0  0  0  0
   -3.4859   -2.6821    0.0000 C   0  0  0  0  0  0  0  0  0  0  0  0
    1.0139   -1.9027    0.0000 O   0  0  0  0  0  0  0  0  0  0  0  0
   -1.8173   -1.9635    0.0000 C   0  0  0  0  0  0  0  0  0  0  0  0
   -0.6485   -2.6821    0.0000 C   0  0  0  0  0  0  0  0  0  0  0  0
   -1.6895    0.8129    0.0000 C   0  0  0  0  0  0  0  0  0  0  0  0
   -2.3716   -1.1721    0.0000 O   0  0  0  0  0  0  0  0  0  0  0  0
   -0.0517   -1.9027    0.0000 C   0  0  0  0  0  0  0  0  0  0  0  0
   -4.0704   -1.9635    0.0000 C   0  0  0  0  0  0  0  0  0  0  0  0
    1.5860    2.6821    0.0000 C   0  0  0  0  0  0  0  0  0  0  0  0
   -3.4859   -1.1721    0.0000 C   0  0  0  0  0  0  0  0  0  0  0  0
   -1.6895    2.7127    0.0000 C   0  0  0  0  0  0  0  0  0  0  0  0
   -2.5055    1.3121    0.0000 C   0  0  0  0  0  0  0  0  0  0  0  0
    2.4020    2.2134    0.0000 C   0  0  0  0  0  0  0  0  0  0  0  0
    3.2242    2.6821    0.0000 C   0  0  0  0  0  0  0  0  0  0  0  0
   -1.8173   -1.2024    0.0000 O   0  0  0  0  0  0  0  0  0  0  0  0
   -0.0517   -0.1247    0.0000 O   0  0  0  0  0  0  0  0  0  0  0  0
   -2.5055    2.2134    0.0000 C   0  0  0  0  0  0  0  0  0  0  0  0
   -0.0517   -1.2024    0.0000 C   0  0  0  0  0  0  0  0  0  0  0  0
    3.2242    3.6198    0.0000 C   0  0  0  0  0  0  0  0  0  0  0  0
    1.5860    3.6198    0.0000 C   0  0  0  0  0  0  0  0  0  0  0  0
    2.4020    4.0885    0.0000 C   0  0  0  0  0  0  0  0  0  0  0  0
    1.0139   -4.1131    0.0000 O   0  0  0  0  0  0  0  0  0  0  0  0
   -2.3716   -3.4554    0.0000 O   0  0  0  0  0  0  0  0  0  0  0  0
   -0.0517   -2.6821    0.0000 O   0  0  0  0  0  0  0  0  0  0  0  0
   -3.4859   -3.4248    0.0000 O   0  0  0  0  0  0  0  0  0  0  0  0
   -1.6895   -0.1247    0.0000 O   0  0  0  0  0  0  0  0  0  0  0  0
   -0.6485   -3.4859    0.0000 O   0  0  0  0  0  0  0  0  0  0  0  0
   -4.0704   -1.0260    0.0000 O   0  0  0  0  0  0  0  0  0  0  0  0
    4.0704    2.1889    0.0000 O   0  0  0  0  0  0  0  0  0  0  0  0
    4.0400    4.1131    0.0000 O   0  0  0  0  0  0  0  0  0  0  0  0
   -3.3519    2.6821    0.0000 O   0  0  0  0  0  0  0  0  0  0  0  0
   -3.4859   -2.0488    0.0000 C   0  0  0  0  0  0  0  0  0  0  0  0
  2  1  2  0  0  0  0
  3  1  1  0  0  0  0
  4  3  1  0  0  0  0
  5 10  1  0  0  0  0
  6  2  1  0  0  0  0
  7  4  2  0  0  0  0
  8  5  1  0  0  0  0
  9 14  1  0  0  0  0
 10  1  1  0  0  0  0
 11  8  1  0  0  0  0
 12  9  1  0  0  0  0
 13  5  1  0  0  0  0
 14 26  1  0  0  0  0
 15 18  1  0  0  0  0
 16  4  1  0  0  0  0
 17 14  1  0  0  0  0
 18 13  1  0  0  0  0
 19 21  1  0  0  0  0
 20  2  1  0  0  0  0
 21 17  1  0  0  0  0
 22  7  1  0  0  0  0
 23 16  2  0  0  0  0
 24 20  2  0  0  0  0
 25 24  1  0  0  0  0
 26 29  1  0  0  0  0
 27  3  2  0  0  0  0
 28 23  1  0  0  0  0
 18 29  1  0  0  0  0
 30 32  1  0  0  0  0
 31 20  1  0  0  0  0
 32 31  2  0  0  0  0
  8 33  1  0  0  0  0
  9 34  1  0  0  0  0
 11 35  1  0  0  0  0
 12 36  1  0  0  0  0
 37 16  1  0  0  0  0
 15 38  1  0  0  0  0
 19 39  1  0  0  0  0
 40 25  1  0  0  0  0
 41 30  1  0  0  0  0
 42 28  1  0  0  0  0
 21 43  1  0  0  0  0
  7  6  1  0  0  0  0
 15 11  1  0  0  0  0
 22 28  2  0  0  0  0
 30 25  2  0  0  0  0
 19 12  1  0  0  0  0
M  END
>  <IDNUMBER> (N027-0011)
N027-0011

>  <available> (N027-0011)
124

>  <H_acceptor> (N027-0011)
16

>  <H_donor> (N027-0011)
10

>  <B_rotN> (N027-0011)
16

>  <N_O> (N027-0011)
16

>  <logP> (N027-0011)
-1.45

>  <logD> (N027-0011)
-5.01

>  <logSw> (N027-0011)
-1.31

>  <PSA> (N027-0011)
265.52

>  <Chiral_centers> (N027-0011)
10

>  <Name> (N027-0011)
2-(3,4-dihydroxyphenyl)-5,7-dihydroxy-3-[(3,4,5-trihydroxy-6-{[(3,4,5-trihydroxy-6-methyloxan-2-yl)oxy]methyl}oxan-2-yl)oxy]-4H-chromen-4-one

>  <Smile> (N027-0011)
CC1OC(C(O)C(C1O)O)OCC1OC(OC2C(c3c(OC=2c2cc(O)c(cc2)O)cc(cc3O)O)=O)C(C(O)C1O)O

>  <Collection> (N027-0011)
DC

>  <InChI Key> (N027-0011)
IKGXIBQEEMLURG-UHFFFAOYSA-N

>  <PERCENTSP3> (N027-0011)
44.4

$$$$

  -ISIS-  -- StrEd -- 

 37 40  0  0  0  0  0  0  0  0999 V2000
    1.8468   -1.5527    0.0000 C   0  0  0  0  0  0  0  0  0  0  0  0
    1.8468   -0.7186    0.0000 C   0  0  0  0  0  0  0  0  0  0  0  0
    2.5508   -1.9576    0.0000 C   0  0  0  0  0  0  0  0  0  0  0  0
   -1.2488   -0.8342    0.0000 C   0  0  0  0  0  0  0  0  0  0  0  0
    2.5508   -0.2990    0.0000 O   0  0  0  0  0  0  0  0  0  0  0  0
   -2.5650   -0.4968    0.0000 C   0  0  0  0  0  0  0  0  0  0  0  0
    3.2595   -1.5527    0.0000 C   0  0  0  0  0  0  0  0  0  0  0  0
    1.1234   -0.2990    0.0000 C   0  0  0  0  0  0  0  0  0  0  0  0
   -4.2142   -1.1091    0.0000 C   0  0  0  0  0  0  0  0  0  0  0  0
    3.2595   -0.7186    0.0000 C   0  0  0  0  0  0  0  0  0  0  0  0
    0.4243   -0.7186    0.0000 C   0  0  0  0  0  0  0  0  0  0  0  0
   -2.3095    0.4870    0.0000 O   0  0  0  0  0  0  0  0  0  0  0  0
    1.1234   -1.9576    0.0000 C   0  0  0  0  0  0  0  0  0  0  0  0
   -5.2121    0.5545    0.0000 C   0  0  0  0  0  0  0  0  0  0  0  0
   -3.9538   -0.0531    0.0000 C   0  0  0  0  0  0  0  0  0  0  0  0
   -0.3086   -0.2797    0.0000 O   0  0  0  0  0  0  0  0  0  0  0  0
    0.4243   -1.5527    0.0000 C   0  0  0  0  0  0  0  0  0  0  0  0
    1.1234    0.5304    0.0000 C   0  0  0  0  0  0  0  0  0  0  0  0
    1.8563    1.2054    0.0000 C   0  0  0  0  0  0  0  0  0  0  0  0
    3.9731   -0.2990    0.0000 C   0  0  0  0  0  0  0  0  0  0  0  0
    2.5508   -2.7870    0.0000 O   0  0  0  0  0  0  0  0  0  0  0  0
    1.6586    2.1456    0.0000 C   0  0  0  0  0  0  0  0  0  0  0  0
   -2.5650   -1.5287    0.0000 O   0  0  0  0  0  0  0  0  0  0  0  0
    4.0165   -2.0205    0.0000 O   0  0  0  0  0  0  0  0  0  0  0  0
   -5.0822   -2.0927    0.0000 O   0  0  0  0  0  0  0  0  0  0  0  0
    3.9731    0.5304    0.0000 C   0  0  0  0  0  0  0  0  0  0  0  0
    4.6819   -0.7186    0.0000 C   0  0  0  0  0  0  0  0  0  0  0  0
    1.1234   -2.7870    0.0000 O   0  0  0  0  0  0  0  0  0  0  0  0
   -6.1139   -0.2411    0.0000 O   0  0  0  0  0  0  0  0  0  0  0  0
    5.3858    0.5304    0.0000 C   0  0  0  0  0  0  0  0  0  0  0  0
    4.6819    0.9498    0.0000 C   0  0  0  0  0  0  0  0  0  0  0  0
    5.3858   -0.2990    0.0000 C   0  0  0  0  0  0  0  0  0  0  0  0
   -3.9538    0.7619    0.0000 C   0  0  0  0  0  0  0  0  0  0  0  0
    6.1139    0.9595    0.0000 O   0  0  0  0  0  0  0  0  0  0  0  0
   -3.2738    1.3355    0.0000 O   0  0  0  0  0  0  0  0  0  0  0  0
    0.7474    2.4204    0.0000 C   0  0  0  0  0  0  0  0  0  0  0  0
    2.3674    2.7870    0.0000 C   0  0  0  0  0  0  0  0  0  0  0  0
  2  1  2  0  0  0  0
  3  1  1  0  0  0  0
  4 16  1  0  0  0  0
  5  2  1  0  0  0  0
  6  4  1  0  0  0  0
  7  3  1  0  0  0  0
  8  2  1  0  0  0  0
  9  6  1  0  0  0  0
 10  7  1  0  0  0  0
 11 17  1  0  0  0  0
 12  4  1  0  0  0  0
 13  1  1  0  0  0  0
 14 15  1  0  0  0  0
 15 12  1  0  0  0  0
 16 11  1  0  0  0  0
 17 13  2  0  0  0  0
 18  8  1  0  0  0  0
 19 18  1  0  0  0  0
 10 20  1  0  0  0  0
 21  3  2  0  0  0  0
 22 19  2  0  0  0  0
  6 23  1  0  0  0  0
  7 24  1  0  0  0  0
  9 25  1  0  0  0  0
 26 20  2  0  0  0  0
 27 20  1  0  0  0  0
 28 13  1  0  0  0  0
 14 29  1  0  0  0  0
 30 32  1  0  0  0  0
 31 26  1  0  0  0  0
 32 27  2  0  0  0  0
 15 33  1  0  0  0  0
 34 30  1  0  0  0  0
 35 33  1  0  0  0  0
 36 22  1  0  0  0  0
 37 22  1  0  0  0  0
 11  8  2  0  0  0  0
 10  5  1  0  0  0  0
 30 31  2  0  0  0  0
  9 14  1  0  0  0  0
M  END
>  <IDNUMBER> (N027-0014)
N027-0014

>  <available> (N027-0014)
139

>  <H_acceptor> (N027-0014)
11

>  <H_donor> (N027-0014)
7

>  <B_rotN> (N027-0014)
13

>  <N_O> (N027-0014)
11

>  <logP> (N027-0014)
1.6

>  <logD> (N027-0014)
-0.36

>  <logSw> (N027-0014)
-5.11

>  <PSA> (N027-0014)
186.37

>  <Chiral_centers> (N027-0014)
7

>  <Name> (N027-0014)
3,5-dihydroxy-2-(4-hydroxyphenyl)-8-(3-methylbut-2-en-1-yl)-7-{[3,4,5-trihydroxy-6-(hydroxymethyl)oxan-2-yl]oxy}-3,4-dihydro-2H-1-benzopyran-4-one

>  <Smile> (N027-0014)
CC(=CCc1c2c(c(cc1OC1C(C(O)C(C(O1)CO)O)O)O)C(C(C(O2)c1ccc(O)cc1)O)=O)C

>  <Collection> (N027-0014)
DC

>  <InChI Key> (N027-0014)
GRDZTDZJQRPNCN-UHFFFAOYSA-N

>  <PERCENTSP3> (N027-0014)
42.3

$$$$

  -ISIS-  -- StrEd -- 

 33 35  0  0  0  0  0  0  0  0999 V2000
   -0.8881   -0.7835    0.0000 C   0  0  0  0  0  0  0  0  0  0  0  0
   -0.0211   -1.2854    0.0000 C   0  0  0  0  0  0  0  0  0  0  0  0
   -1.7474   -1.2854    0.0000 C   0  0  0  0  0  0  0  0  0  0  0  0
   -0.0211   -2.2972    0.0000 C   0  0  0  0  0  0  0  0  0  0  0  0
   -1.7474   -2.2972    0.0000 C   0  0  0  0  0  0  0  0  0  0  0  0
   -0.8881   -2.7991    0.0000 O   0  0  0  0  0  0  0  0  0  0  0  0
   -0.8881    0.2130    0.0000 O   0  0  0  0  0  0  0  0  0  0  0  0
   -2.6032   -0.7835    0.0000 O   0  0  0  0  0  0  0  0  0  0  0  0
   -0.0133    0.7302    0.0000 C   0  0  0  0  0  0  0  0  0  0  0  0
   -2.6032    0.2280    0.0000 C   0  0  0  0  0  0  0  0  0  0  0  0
    1.7589   -2.2972    0.0000 C   0  0  0  0  0  0  0  0  0  0  0  0
    0.8652   -0.7835    0.0000 C   0  0  0  0  0  0  0  0  0  0  0  0
    2.6450   -2.7838    0.0000 O   0  0  0  0  0  0  0  0  0  0  0  0
    0.8652   -2.7838    0.0000 C   0  0  0  0  0  0  0  0  0  0  0  0
    1.7589   -1.2854    0.0000 C   0  0  0  0  0  0  0  0  0  0  0  0
    3.4933   -2.2972    0.0000 C   0  0  0  0  0  0  0  0  0  0  0  0
    2.6450   -0.7835    0.0000 C   0  0  0  0  0  0  0  0  0  0  0  0
   -3.4703    0.7302    0.0000 C   0  0  0  0  0  0  0  0  0  0  0  0
   -0.0133    1.7267    0.0000 C   0  0  0  0  0  0  0  0  0  0  0  0
    3.4933   -1.2854    0.0000 C   0  0  0  0  0  0  0  0  0  0  0  0
   -1.7286    0.7302    0.0000 O   0  0  0  0  0  0  0  0  0  0  0  0
    0.8537    0.2472    0.0000 O   0  0  0  0  0  0  0  0  0  0  0  0
    4.3489   -2.7838    0.0000 O   0  0  0  0  0  0  0  0  0  0  0  0
   -3.4703    1.7455    0.0000 C   0  0  0  0  0  0  0  0  0  0  0  0
    0.8652    2.2095    0.0000 C   0  0  0  0  0  0  0  0  0  0  0  0
   -1.7286   -3.2022    0.0000 C   0  0  0  0  0  0  0  0  0  0  0  0
   -2.6032   -2.7991    0.0000 C   0  0  0  0  0  0  0  0  0  0  0  0
   -4.3109    0.2130    0.0000 C   0  0  0  0  0  0  0  0  0  0  0  0
   -0.8804    2.2020    0.0000 C   0  0  0  0  0  0  0  0  0  0  0  0
   -2.6032    2.2476    0.0000 C   0  0  0  0  0  0  0  0  0  0  0  0
    1.7209    1.6999    0.0000 C   0  0  0  0  0  0  0  0  0  0  0  0
    0.8804    3.2022    0.0000 H   0  0  0  0  0  0  0  0  0  0  0  0
   -4.3489    2.2476    0.0000 H   0  0  0  0  0  0  0  0  0  0  0  0
  2  1  1  0  0  0  0
  3  1  1  0  0  0  0
  4  2  1  0  0  0  0
  5  3  1  0  0  0  0
  6  5  1  0  0  0  0
  1  7  1  0  0  0  0
  3  8  1  0  0  0  0
  9  7  1  0  0  0  0
 10  8  1  0  0  0  0
 11 15  2  0  0  0  0
 12  2  2  0  0  0  0
 13 11  1  0  0  0  0
 14  4  2  0  0  0  0
 15 12  1  0  0  0  0
 16 20  1  0  0  0  0
 17 15  1  0  0  0  0
 18 10  1  0  0  0  0
 19  9  1  0  0  0  0
 20 17  2  0  0  0  0
 21 10  2  0  0  0  0
 22  9  2  0  0  0  0
 23 16  2  0  0  0  0
 24 18  2  0  0  0  0
 25 19  2  0  0  0  0
  5 26  1  0  0  0  0
 27  5  1  0  0  0  0
 28 18  1  0  0  0  0
 29 19  1  0  0  0  0
 30 24  1  0  0  0  0
 31 25  1  0  0  0  0
 32 25  1  0  0  0  0
 33 24  1  0  0  0  0
  6  4  1  0  0  0  0
 14 11  1  0  0  0  0
 13 16  1  0  0  0  0
M  END
>  <IDNUMBER> (N034-0003)
N034-0003

>  <available> (N034-0003)
105

>  <H_acceptor> (N034-0003)
7

>  <H_donor> (N034-0003)
0

>  <B_rotN> (N034-0003)
6

>  <N_O> (N034-0003)
7

>  <logP> (N034-0003)
4.94

>  <logD> (N034-0003)
4.27

>  <logSw> (N034-0003)
-5.27

>  <PSA> (N034-0003)
88.13

>  <Chiral_centers> (N034-0003)
2

>  <Name> (N034-0003)
2,2-dimethyl-3-{[(2Z)-2-methylbut-2-enoyl]oxy}-8-oxo-2H,3H,4H,8H-pyrano[3,2-g]chromen-4-yl (2Z)-2-methylbut-2-enoate

>  <Smile> (N034-0003)
CC=C(C(OC1C(C(C)(Oc2c1cc1c(c2)OC(C=C1)=O)C)OC(C(=CC)C)=O)=O)C

>  <Collection> (N034-0003)
DC

>  <InChI Key> (N034-0003)
LBKPHBYDOWPFMZ-PVRNWPCDSA-N

>  <PERCENTSP3> (N034-0003)
37.5

$$$$

  -ISIS-  -- StrEd -- 

 25 29  0  0  0  0  0  0  0  0999 V2000
    0.7466    1.4777    0.0000 N   0  0  0  0  0  0  0  0  0  0  0  0
    1.6389   -0.0244    0.0000 C   0  0  0  0  0  0  0  0  0  0  0  0
   -0.1015    0.9917    0.0000 C   0  0  0  0  0  0  0  0  0  0  0  0
   -0.9675    1.4777    0.0000 C   0  0  0  0  0  0  0  0  0  0  0  0
    1.6168    0.9917    0.0000 C   0  0  0  0  0  0  0  0  0  0  0  0
    0.7466   -0.5368    0.0000 C   0  0  0  0  0  0  0  0  0  0  0  0
   -0.1015   -0.0244    0.0000 C   0  0  0  0  0  0  0  0  0  0  0  0
    2.5091   -0.5147    0.0000 C   0  0  0  0  0  0  0  0  0  0  0  0
   -0.9896    2.4762    0.0000 C   0  0  0  0  0  0  0  0  0  0  0  0
   -1.8378    0.9917    0.0000 C   0  0  0  0  0  0  0  0  0  0  0  0
   -2.7081    1.4777    0.0000 C   0  0  0  0  0  0  0  0  0  0  0  0
   -2.7081    2.4762    0.0000 C   0  0  0  0  0  0  0  0  0  0  0  0
   -1.8378    2.9841    0.0000 C   0  0  0  0  0  0  0  0  0  0  0  0
    0.7466    2.4983    0.0000 C   0  0  0  0  0  0  0  0  0  0  0  0
   -3.6402    1.1817    0.0000 O   0  0  0  0  0  0  0  0  0  0  0  0
   -3.6625    2.7943    0.0000 O   0  0  0  0  0  0  0  0  0  0  0  0
    2.5313   -1.5087    0.0000 C   0  0  0  0  0  0  0  0  0  0  0  0
   -4.2146    1.9901    0.0000 C   0  0  0  0  0  0  0  0  0  0  0  0
   -0.1015    2.9841    0.0000 C   0  0  0  0  0  0  0  0  0  0  0  0
    0.7466   -1.5308    0.0000 C   0  0  0  0  0  0  0  0  0  0  0  0
    1.6168   -2.0389    0.0000 C   0  0  0  0  0  0  0  0  0  0  0  0
    3.3574   -0.0066    0.0000 O   0  0  0  0  0  0  0  0  0  0  0  0
    3.4193   -1.9990    0.0000 O   0  0  0  0  0  0  0  0  0  0  0  0
    4.2146   -0.4838    0.0000 C   0  0  0  0  0  0  0  0  0  0  0  0
    3.4193   -2.9841    0.0000 C   0  0  0  0  0  0  0  0  0  0  0  0
  2  5  1  0  0  0  0
  3  1  1  0  0  0  0
  4  3  1  0  0  0  0
  5  1  1  0  0  0  0
  6  2  1  0  0  0  0
  7  3  1  0  0  0  0
  8  2  2  0  0  0  0
  9 19  1  0  0  0  0
 10  4  2  0  0  0  0
 11 10  1  0  0  0  0
 12 13  1  0  0  0  0
 13  9  2  0  0  0  0
 14  1  1  0  0  0  0
 15 11  1  0  0  0  0
 16 12  1  0  0  0  0
 17  8  1  0  0  0  0
 18 15  1  0  0  0  0
 19 14  1  0  0  0  0
 20  6  2  0  0  0  0
 21 17  2  0  0  0  0
 22  8  1  0  0  0  0
 23 17  1  0  0  0  0
 24 22  1  0  0  0  0
 25 23  1  0  0  0  0
  6  7  1  0  0  0  0
  4  9  1  0  0  0  0
 11 12  2  0  0  0  0
 20 21  1  0  0  0  0
 18 16  1  0  0  0  0
M  END
>  <IDNUMBER> (N036-0108)
N036-0108

>  <available> (N036-0108)
389

>  <H_acceptor> (N036-0108)
5

>  <H_donor> (N036-0108)
0

>  <B_rotN> (N036-0108)
2

>  <N_O> (N036-0108)
5

>  <logP> (N036-0108)
3.4

>  <logD> (N036-0108)
1.46

>  <logSw> (N036-0108)
-3.16

>  <PSA> (N036-0108)
40.16

>  <Chiral_centers> (N036-0108)
1

>  <Name> (N036-0108)
16,17-DIMETHOXY-5,7-DIOXA-13-AZAPENTACYCLO[11.8.0.0^(2,10).0^(4,8).0^(15,20)]HENICOSA-2,4(8),9,15(20),16,18-HEXAENE

>  <Smile> (N036-0108)
COc1c(c2CN3CCc4c(C3Cc2cc1)cc1c(c4)OCO1)OC

>  <Collection> (N036-0108)
NC

>  <InChI Key> (N036-0108)
VZTUIEROBZXUFA-UHFFFAOYSA-N

>  <PERCENTSP3> (N036-0108)
40

$$$$

  -ISIS-  -- StrEd -- 

 24 26  0  0  0  0  0  0  0  0999 V2000
   -1.6501    0.2602    0.0000 C   0  0  0  0  0  0  0  0  0  0  0  0
   -1.6290   -0.7390    0.0000 O   0  0  0  0  0  0  0  0  0  0  0  0
   -0.7432   -1.4527    0.0000 C   0  0  0  0  0  0  0  0  0  0  0  0
   -1.3478    1.2260    0.0000 C   0  0  0  0  0  0  0  0  0  0  0  0
    1.0286    1.9103    0.0000 C   0  0  0  0  0  0  0  0  0  0  0  0
    1.7760    1.2260    0.0000 C   0  0  0  0  0  0  0  0  0  0  0  0
    0.2015   -2.7627    0.0000 N   0  0  0  0  0  0  0  0  0  0  0  0
    0.2015   -1.7550    0.0000 C   0  0  0  0  0  0  0  0  0  0  0  0
    2.0782    0.2602    0.0000 O   0  0  0  0  0  0  0  0  0  0  0  0
    0.2644    2.1957    0.0000 C   0  0  0  0  0  0  0  0  0  0  0  0
   -0.7054    1.9607    0.0000 C   0  0  0  0  0  0  0  0  0  0  0  0
    1.1714   -1.4527    0.0000 C   0  0  0  0  0  0  0  0  0  0  0  0
   -1.3268   -2.2589    0.0000 C   0  0  0  0  0  0  0  0  0  0  0  0
   -0.7432   -3.0649    0.0000 C   0  0  0  0  0  0  0  0  0  0  0  0
    2.0866   -0.6760    0.0000 C   0  0  0  0  0  0  0  0  0  0  0  0
   -2.6577    0.2981    0.0000 O   0  0  0  0  0  0  0  0  0  0  0  0
    1.1714   -3.0649    0.0000 C   0  0  0  0  0  0  0  0  0  0  0  0
    2.6577    1.7550    0.0000 O   0  0  0  0  0  0  0  0  0  0  0  0
   -2.2336    1.7550    0.0000 C   0  0  0  0  0  0  0  0  0  0  0  0
    1.7340   -2.2589    0.0000 C   0  0  0  0  0  0  0  0  0  0  0  0
    0.5668    1.0496    0.0000 O   0  0  0  0  0  0  0  0  0  0  0  0
    1.7130    2.6366    0.0000 C   0  0  0  0  0  0  0  0  0  0  0  0
    0.2644    3.0649    0.0000 C   0  0  0  0  0  0  0  0  0  0  0  0
   -2.2336    2.7626    0.0000 C   0  0  0  0  0  0  0  0  0  0  0  0
  2  1  1  0  0  0  0
  3  2  1  0  0  0  0
  4  1  1  0  0  0  0
  5 10  1  0  0  0  0
  6  5  1  0  0  0  0
  8  7  1  0  0  0  0
  8  3  1  0  0  0  0
  9  6  1  0  0  0  0
 10 11  1  0  0  0  0
 11  4  1  0  0  0  0
 12  8  1  0  0  0  0
 13  3  1  0  0  0  0
 14 13  1  0  0  0  0
 15 12  1  0  0  0  0
 16  1  2  0  0  0  0
 17  7  1  0  0  0  0
 18  6  2  0  0  0  0
 19  4  2  0  0  0  0
 20 12  1  0  0  0  0
  5 21  1  0  0  0  0
 22  5  1  0  0  0  0
 10 23  1  0  0  0  0
 24 19  1  0  0  0  0
  7 14  1  0  0  0  0
 17 20  1  0  0  0  0
  9 15  1  0  0  0  0
M  END
>  <IDNUMBER> (N051-0018)
N051-0018

>  <available> (N051-0018)
21

>  <Saltdata> (N051-0018)
HOOCCHOHCHOHCOOH

>  <H_acceptor> (N051-0018)
4

>  <H_donor> (N051-0018)
1

>  <B_rotN> (N051-0018)
3

>  <N_O> (N051-0018)
6

>  <logP> (N051-0018)
2.56

>  <logD> (N051-0018)
2.76

>  <logSw> (N051-0018)
-3.23

>  <PSA> (N051-0018)
76.07

>  <Chiral_centers> (N051-0018)
5

>  <Name> (N051-0018)
(4E)-4-ETHYLIDENE-7-HYDROXY-6,7-DIMETHYL-2,9-DIOXA-14-AZATRICYCLO[9.5.1.0^(14,17)]HEPTADECANE-3,8-DIONE

>  <Smile> (N051-0018)
CC=C1C(=O)OC2CCN3CCC(C32)COC(C(C(C1)C)(O)C)=O

>  <Collection> (N051-0018)
DC

>  <InChI Key> (N051-0018)
BTHCJHQOYFUIMG-UUILKARUSA-N

>  <PERCENTSP3> (N051-0018)
77.8

$$$$

  -ISIS-  -- StrEd -- 

 43 46  0  0  0  0  0  0  0  0999 V2000
   -2.5077   -1.9161    0.0000 C   0  0  0  0  0  0  0  0  0  0  0  0
   -1.5424   -1.6865    0.0000 C   0  0  0  0  0  0  0  0  0  0  0  0
   -3.3083   -1.3098    0.0000 C   0  0  0  0  0  0  0  0  0  0  0  0
   -0.7594   -2.2986    0.0000 C   0  0  0  0  0  0  0  0  0  0  0  0
   -4.1735   -1.8219    0.0000 C   0  0  0  0  0  0  0  0  0  0  0  0
   -5.0681   -1.3098    0.0000 C   0  0  0  0  0  0  0  0  0  0  0  0
   -2.9551   -2.8107    0.0000 C   0  0  0  0  0  0  0  0  0  0  0  0
   -3.3083   -0.3088    0.0000 C   0  0  0  0  0  0  0  0  0  0  0  0
   -1.1125   -0.8034    0.0000 C   0  0  2  0  0  0  0  0  0  0  0  0
   -0.7417   -3.3111    0.0000 C   0  0  0  0  0  0  0  0  0  0  0  0
   -5.0681   -0.3088    0.0000 C   0  0  0  0  0  0  0  0  0  0  0  0
   -2.5077   -3.7113    0.0000 C   0  0  0  0  0  0  0  0  0  0  0  0
   -1.5009   -3.9409    0.0000 C   0  0  0  0  0  0  0  0  0  0  0  0
   -4.1735    0.2208    0.0000 C   0  0  0  0  0  0  0  0  0  0  0  0
    4.8562    0.9271    0.0000 C   0  0  0  0  0  0  0  0  0  0  0  0
    1.3950    0.0619    0.0000 C   0  0  0  0  0  0  0  0  0  0  0  0
    2.3838    0.0619    0.0000 C   0  0  0  0  0  0  0  0  0  0  0  0
   -1.5424    0.0854    0.0000 C   0  0  0  0  0  0  0  0  0  0  0  0
   -0.1061   -0.8034    0.0000 N   0  0  0  0  0  0  0  0  0  0  0  0
   -2.5077    0.3268    0.0000 C   0  0  0  0  0  0  0  0  0  0  0  0
    5.3329    1.7747    0.0000 C   0  0  0  0  0  0  0  0  0  0  0  0
    0.1529   -3.7288    0.0000 O   0  0  0  0  0  0  0  0  0  0  0  0
    5.3154    0.0619    0.0000 O   0  0  0  0  0  0  0  0  0  0  0  0
   -4.1735   -2.8107    0.0000 O   0  0  0  0  0  0  0  0  0  0  0  0
    6.3221    1.7572    0.0000 C   0  0  0  0  0  0  0  0  0  0  0  0
    4.8385    2.6461    0.0000 C   0  0  0  0  0  0  0  0  0  0  0  0
   -5.9512   -1.8219    0.0000 O   0  0  0  0  0  0  0  0  0  0  0  0
   -5.9512    0.2266    0.0000 O   0  0  0  0  0  0  0  0  0  0  0  0
    3.8674    0.9271    0.0000 O   0  0  0  0  0  0  0  0  0  0  0  0
   -1.2598   -4.9122    0.0000 O   0  0  0  0  0  0  0  0  0  0  0  0
    0.3885    0.0619    0.0000 C   0  0  0  0  0  0  0  0  0  0  0  0
    6.3221    3.4702    0.0000 C   0  0  0  0  0  0  0  0  0  0  0  0
    5.3329    3.4760    0.0000 C   0  0  0  0  0  0  0  0  0  0  0  0
    6.8341    2.6224    0.0000 C   0  0  0  0  0  0  0  0  0  0  0  0
    3.3846    0.0619    0.0000 C   0  0  0  0  0  0  0  0  0  0  0  0
    6.8165    4.3178    0.0000 O   0  0  0  0  0  0  0  0  0  0  0  0
    0.3707   -1.6805    0.0000 C   0  0  0  0  0  0  0  0  0  0  0  0
   -5.0506   -3.3111    0.0000 C   0  0  0  0  0  0  0  0  0  0  0  0
   -6.8341   -1.3098    0.0000 C   0  0  0  0  0  0  0  0  0  0  0  0
   -6.8341   -0.2736    0.0000 C   0  0  0  0  0  0  0  0  0  0  0  0
   -0.3003   -5.1830    0.0000 C   0  0  0  0  0  0  0  0  0  0  0  0
    6.3221    5.1830    0.0000 C   0  0  0  0  0  0  0  0  0  0  0  0
   -0.5536   -0.0088    0.0000 H   0  0  0  0  0  0  0  0  0  0  0  0
  2  1  1  0  0  0  0
  3  1  1  0  0  0  0
  4  2  2  0  0  0  0
  5  3  1  0  0  0  0
  6  5  2  0  0  0  0
  7  1  2  0  0  0  0
  8  3  2  0  0  0  0
  9  2  1  0  0  0  0
 10  4  1  0  0  0  0
 11 14  2  0  0  0  0
 12  7  1  0  0  0  0
 13 12  2  0  0  0  0
 14  8  1  0  0  0  0
 15 29  1  0  0  0  0
 16 31  1  0  0  0  0
 17 16  3  0  0  0  0
 18  9  1  0  0  0  0
  9 19  1  6  0  0  0
 20  8  1  0  0  0  0
 21 15  1  0  0  0  0
 22 10  2  0  0  0  0
 23 15  2  0  0  0  0
 24  5  1  0  0  0  0
 25 21  2  0  0  0  0
 26 21  1  0  0  0  0
 27  6  1  0  0  0  0
 28 11  1  0  0  0  0
 29 35  1  0  0  0  0
 30 13  1  0  0  0  0
 31 19  1  0  0  0  0
 32 33  1  0  0  0  0
 33 26  2  0  0  0  0
 34 25  1  0  0  0  0
 35 17  1  0  0  0  0
 36 32  1  0  0  0  0
 37 19  1  0  0  0  0
 38 24  1  0  0  0  0
 39 27  1  0  0  0  0
 40 28  1  0  0  0  0
 41 30  1  0  0  0  0
 42 36  1  0  0  0  0
  9 43  1  1  0  0  0
 10 13  1  0  0  0  0
 20 18  1  0  0  0  0
  6 11  1  0  0  0  0
 34 32  2  0  0  0  0
M  END
>  <IDNUMBER> (N051-0028)
N051-0028

>  <available> (N051-0028)
145

>  <H_acceptor> (N051-0028)
1

>  <H_donor> (N051-0028)
0

>  <B_rotN> (N051-0028)
0

>  <N_O> (N051-0028)
3

>  <logP> (N051-0028)
1.4

>  <logD> (N051-0028)
-1.75

>  <logSw> (N051-0028)
0.11

>  <PSA> (N051-0028)
92.76

>  <Chiral_centers> (N051-0028)
1

>  <Name> (N051-0028)
4-{methyl[(7S)-1,2,3,10-tetramethoxy-9-oxo-5,6,7,9-tetrahydrobenzo[a]heptalen-7-yl]amino}-2-butynyl 4-methoxybenzoate

>  <Smile> (N051-0028)
COc1ccc(C(OCC#CCN(C2c3c(ccc(c(c3)=O)OC)c3c(c(OC)c(cc3CC2)OC)OC)C)=O)cc1

>  <Collection> (N051-0028)
DC

>  <InChI Key> (N051-0028)
WFDVTDMCODNHNA-SANMLTNESA-N

>  <PERCENTSP3> (N051-0028)
33.3

$$$$

  -ISIS-  -- StrEd -- 

 27 29  0  0  0  0  0  0  0  0999 V2000
   -1.6063   -0.7548    0.0000 C   0  0  0  0  0  0  0  0  0  0  0  0
   -2.4688   -0.2486    0.0000 C   0  0  0  0  0  0  0  0  0  0  0  0
   -1.6063   -1.7449    0.0000 C   0  0  0  0  0  0  0  0  0  0  0  0
   -2.4688   -2.2333    0.0000 N   0  0  0  0  0  0  0  0  0  0  0  0
    3.9605   -0.3719    0.0000 C   0  0  0  0  0  0  0  0  0  0  0  0
    4.3829    0.5963    0.0000 O   0  0  0  0  0  0  0  0  0  0  0  0
   -3.3357   -0.7548    0.0000 C   0  0  0  0  0  0  0  0  0  0  0  0
    2.9264   -0.2046    0.0000 O   0  0  0  0  0  0  0  0  0  0  0  0
    3.4985    1.2431    0.0000 C   0  0  0  0  0  0  0  0  0  0  0  0
   -3.3357   -1.7449    0.0000 C   0  0  0  0  0  0  0  0  0  0  0  0
    2.6536    0.7459    0.0000 C   0  0  0  0  0  0  0  0  0  0  0  0
   -0.7395   -2.2333    0.0000 O   0  0  0  0  0  0  0  0  0  0  0  0
    0.0967    1.2431    0.0000 C   0  0  0  0  0  0  0  0  0  0  0  0
    1.8088    1.2300    0.0000 C   0  0  0  0  0  0  0  0  0  0  0  0
   -0.7614    0.7459    0.0000 C   0  0  0  0  0  0  0  0  0  0  0  0
   -2.4688    0.7459    0.0000 O   0  0  0  0  0  0  0  0  0  0  0  0
    0.9504    0.7459    0.0000 C   0  0  0  0  0  0  0  0  0  0  0  0
   -1.6151    1.2431    0.0000 C   0  0  0  0  0  0  0  0  0  0  0  0
    5.0476   -0.5436    0.0000 C   0  0  0  0  0  0  0  0  0  0  0  0
    3.6524   -1.2606    0.0000 C   0  0  0  0  0  0  0  0  0  0  0  0
   -4.1805   -0.2486    0.0000 C   0  0  0  0  0  0  0  0  0  0  0  0
    2.9880    2.0970    0.0000 C   0  0  0  0  0  0  0  0  0  0  0  0
    4.3435    1.7405    0.0000 C   0  0  0  0  0  0  0  0  0  0  0  0
   -4.1805   -2.2333    0.0000 C   0  0  0  0  0  0  0  0  0  0  0  0
    0.0967    2.2333    0.0000 C   0  0  0  0  0  0  0  0  0  0  0  0
   -5.0476   -0.7548    0.0000 C   0  0  0  0  0  0  0  0  0  0  0  0
   -5.0476   -1.7449    0.0000 C   0  0  0  0  0  0  0  0  0  0  0  0
  2  1  2  0  0  0  0
  3  1  1  0  0  0  0
  4  3  1  0  0  0  0
  5  8  1  0  0  0  0
  6  9  1  0  0  0  0
  7  2  1  0  0  0  0
  8 11  1  0  0  0  0
  9 11  1  0  0  0  0
 10  4  1  0  0  0  0
 11 14  1  0  0  0  0
 12  3  2  0  0  0  0
 13 15  2  0  0  0  0
 14 17  1  0  0  0  0
 15 18  1  0  0  0  0
 16  2  1  0  0  0  0
 17 13  1  0  0  0  0
 18 16  1  0  0  0  0
  5 19  1  0  0  0  0
 20  5  1  0  0  0  0
 21  7  1  0  0  0  0
 22  9  1  0  0  0  0
  9 23  1  0  0  0  0
 24 10  1  0  0  0  0
 25 13  1  0  0  0  0
 26 21  2  0  0  0  0
 27 24  2  0  0  0  0
 10  7  2  0  0  0  0
 27 26  1  0  0  0  0
  5  6  1  0  0  0  0
M  END
>  <IDNUMBER> (N038-0004)
N038-0004

>  <available> (N038-0004)
510

>  <H_acceptor> (N038-0004)
4

>  <H_donor> (N038-0004)
1

>  <B_rotN> (N038-0004)
6

>  <N_O> (N038-0004)
5

>  <logP> (N038-0004)
2.61

>  <logD> (N038-0004)
4.06

>  <logSw> (N038-0004)
-4.64

>  <PSA> (N038-0004)
56.79

>  <Chiral_centers> (N038-0004)
1

>  <Name> (N038-0004)
4-{[(2E)-3-methyl-5-(2,2,5,5-tetramethyl-1,3-dioxolan-4-yl)pent-2-en-1-yl]oxy}-1,2-dihydroquinolin-2-one

>  <Smile> (N038-0004)
c1cc2[nH]c(cc(OCC=C(CCC3OC(OC3(C)C)(C)C)C)c2cc1)=O

>  <Collection> (N038-0004)
NC

>  <InChI Key> (N038-0004)
KSRUHPZOGHKBJG-NTCAYCPXSA-N

>  <PERCENTSP3> (N038-0004)
50

$$$$

  -ISIS-  -- StrEd -- 

 25 29  0  0  0  0  0  0  0  0999 V2000
    0.0963   -0.7361    0.0000 C   0  0  0  0  0  0  0  0  0  0  0  0
   -0.4815    0.0572    0.0000 C   0  0  0  0  0  0  0  0  0  0  0  0
    1.0985   -0.7361    0.0000 C   0  0  0  0  0  0  0  0  0  0  0  0
   -0.4815   -1.5881    0.0000 N   0  0  0  0  0  0  0  0  0  0  0  0
    1.3042    0.7230    0.0000 C   0  0  0  0  0  0  0  0  0  0  0  0
    0.2759    0.7230    0.0000 C   0  0  0  0  0  0  0  0  0  0  0  0
    1.8037   -0.1616    0.0000 C   0  0  0  0  0  0  0  0  0  0  0  0
   -1.4575   -0.2497    0.0000 C   0  0  0  0  0  0  0  0  0  0  0  0
   -1.4575   -1.2846    0.0000 C   0  0  0  0  0  0  0  0  0  0  0  0
    1.6468   -1.5881    0.0000 C   0  0  0  0  0  0  0  0  0  0  0  0
   -0.1159    1.6402    0.0000 N   0  0  0  0  0  0  0  0  0  0  0  0
   -1.3400    0.5728    0.0000 C   0  0  0  0  0  0  0  0  0  0  0  0
   -1.0952    1.5751    0.0000 C   0  0  0  0  0  0  0  0  0  0  0  0
    1.1931   -2.5021    0.0000 O   0  0  0  0  0  0  0  0  0  0  0  0
    1.8135    1.5913    0.0000 C   0  0  0  0  0  0  0  0  0  0  0  0
    2.1953    0.7100    0.0000 C   0  0  0  0  0  0  0  0  0  0  0  0
    2.7046   -1.5881    0.0000 O   0  0  0  0  0  0  0  0  0  0  0  0
    0.4031    2.5021    0.0000 C   0  0  0  0  0  0  0  0  0  0  0  0
   -2.3390    0.2693    0.0000 C   0  0  0  0  0  0  0  0  0  0  0  0
   -2.3390   -1.7774    0.0000 C   0  0  0  0  0  0  0  0  0  0  0  0
    1.4020    2.4923    0.0000 C   0  0  0  0  0  0  0  0  0  0  0  0
    3.2006   -0.7262    0.0000 C   0  0  0  0  0  0  0  0  0  0  0  0
    2.9690    1.1703    0.0000 C   0  0  0  0  0  0  0  0  0  0  0  0
   -3.2006   -0.2497    0.0000 C   0  0  0  0  0  0  0  0  0  0  0  0
   -3.2006   -1.2584    0.0000 C   0  0  0  0  0  0  0  0  0  0  0  0
  2  1  1  0  0  0  0
  3  1  2  0  0  0  0
  4  1  1  0  0  0  0
  5  7  1  0  0  0  0
  6  2  1  0  0  0  0
  7  3  1  0  0  0  0
  2  8  1  0  0  0  0
  9  4  1  0  0  0  0
 10  3  1  0  0  0  0
 11  6  1  0  0  0  0
 12  2  1  0  0  0  0
 13 12  1  0  0  0  0
 14 10  2  0  0  0  0
 15  5  1  0  0  0  0
  5 16  1  0  0  0  0
 17 10  1  0  0  0  0
 18 11  1  0  0  0  0
 19  8  1  0  0  0  0
 20  9  1  0  0  0  0
 21 15  1  0  0  0  0
 22 17  1  0  0  0  0
 23 16  1  0  0  0  0
 24 19  2  0  0  0  0
 25 20  2  0  0  0  0
  9  8  2  0  0  0  0
  5  6  1  0  0  0  0
 11 13  1  0  0  0  0
 25 24  1  0  0  0  0
 21 18  1  0  0  0  0
M  END
>  <IDNUMBER> (N039-0004)
N039-0004

>  <available> (N039-0004)
284

>  <Saltdata> (N039-0004)
HI

>  <H_acceptor> (N039-0004)
8

>  <H_donor> (N039-0004)
0

>  <B_rotN> (N039-0004)
12

>  <N_O> (N039-0004)
9

>  <logP> (N039-0004)
5.37

>  <logD> (N039-0004)
3.52

>  <logSw> (N039-0004)
-0.71

>  <PSA> (N039-0004)
41.57

>  <Chiral_centers> (N039-0004)
3

>  <Name> (N039-0004)
METHYL 12-ETHYL-8,16-DIAZAPENTACYCLO[10.6.1.0^(1,9).0^(2,7).0^(16,19)]NONADECA-2,4,6,9-TETRAENE-10-CARBOXYLATE

>  <Smile> (N039-0004)
c1cc2NC3=C(CC4(CC)CCCN5C4C3(c2cc1)CC5)C(=O)OC

>  <Collection> (N039-0004)
DC

>  <InChI Key> (N039-0004)
GIGFIWJRTMBSRP-UHFFFAOYSA-N

>  <PERCENTSP3> (N039-0004)
57.1

$$$$

  -ISIS-  -- StrEd -- 

 53 59  0  0  0  0  0  0  0  0999 V2000
    0.0274    1.3926    0.0000 C   0  0  0  0  0  0  0  0  0  0  0  0
   -1.5427    1.3926    0.0000 C   0  0  0  0  0  0  0  0  0  0  0  0
   -1.5427    2.2828    0.0000 C   0  0  0  0  0  0  0  0  0  0  0  0
   -0.7626    0.9476    0.0000 C   0  0  0  0  0  0  0  0  0  0  0  0
    0.8075    0.9476    0.0000 C   0  0  0  0  0  0  0  0  0  0  0  0
   -2.3127    2.7380    0.0000 C   0  0  0  0  0  0  0  0  0  0  0  0
    0.0274    2.2928    0.0000 O   0  0  0  0  0  0  0  0  0  0  0  0
    4.3730   -3.3129    0.0000 C   0  0  0  0  0  0  0  0  0  0  0  0
    3.1129   -3.3129    0.0000 C   0  0  0  0  0  0  0  0  0  0  0  0
   -0.7626    2.7380    0.0000 C   0  0  0  0  0  0  0  0  0  0  0  0
    5.0431   -2.4478    0.0000 C   0  0  0  0  0  0  0  0  0  0  0  0
    1.0727   -2.7729    0.0000 C   0  0  0  0  0  0  0  0  0  0  0  0
    4.3730   -1.5127    0.0000 O   0  0  0  0  0  0  0  0  0  0  0  0
    2.4429   -2.4478    0.0000 C   0  0  0  0  0  0  0  0  0  0  0  0
   -2.3127    3.6280    0.0000 C   0  0  0  0  0  0  0  0  0  0  0  0
    3.1129   -1.5127    0.0000 C   0  0  0  0  0  0  0  0  0  0  0  0
    1.6728   -0.2524    0.0000 O   0  0  0  0  0  0  0  0  0  0  0  0
    0.8075    0.0276    0.0000 C   0  0  0  0  0  0  0  0  0  0  0  0
   -0.2375   -2.7729    0.0000 C   0  0  0  0  0  0  0  0  0  0  0  0
    2.2027    0.5277    0.0000 C   0  0  1  0  0  0  0  0  0  0  0  0
    1.6728    1.2026    0.0000 C   0  0  0  0  0  0  0  0  0  0  0  0
   -3.1178    2.2828    0.0000 C   0  0  0  0  0  0  0  0  0  0  0  0
    1.7429   -1.9079    0.0000 C   0  0  0  0  0  0  0  0  0  0  0  0
    4.9383    0.5277    0.0000 C   0  0  0  0  0  0  0  0  0  0  0  0
   -1.5078    4.0582    0.0000 O   0  0  0  0  0  0  0  0  0  0  0  0
   -3.1030    4.0680    0.0000 C   0  0  0  0  0  0  0  0  0  0  0  0
    1.0727   -1.0176    0.0000 O   0  0  0  0  0  0  0  0  0  0  0  0
   -0.7626    0.0276    0.0000 C   0  0  0  0  0  0  0  0  0  0  0  0
   -3.8833    2.7380    0.0000 C   0  0  0  0  0  0  0  0  0  0  0  0
   -3.8833    3.6382    0.0000 C   0  0  0  0  0  0  0  0  0  0  0  0
   -0.9425   -1.9079    0.0000 C   0  0  0  0  0  0  0  0  0  0  0  0
    5.0431   -1.0677    0.0000 O   0  0  0  0  0  0  0  0  0  0  0  0
   -0.7626    3.6382    0.0000 C   0  0  0  0  0  0  0  0  0  0  0  0
   -2.3379    0.9476    0.0000 O   0  0  0  0  0  0  0  0  0  0  0  0
    1.7226   -0.9226    0.0000 O   0  0  0  0  0  0  0  0  0  0  0  0
    3.1129   -0.9226    0.0000 C   0  0  0  0  0  0  0  0  0  0  0  0
    0.0274   -0.4424    0.0000 C   0  0  0  0  0  0  0  0  0  0  0  0
    5.4433   -0.2625    0.0000 C   0  0  0  0  0  0  0  0  0  0  0  0
   -0.2375   -1.0176    0.0000 C   0  0  0  0  0  0  0  0  0  0  0  0
    4.1082   -0.1274    0.0000 C   0  0  0  0  0  0  0  0  0  0  0  0
    4.3730   -4.0680    0.0000 O   0  0  0  0  0  0  0  0  0  0  0  0
    1.0727   -3.5979    0.0000 O   0  0  0  0  0  0  0  0  0  0  0  0
    3.1129   -2.3978    0.0000 O   0  0  0  0  0  0  0  0  0  0  0  0
    2.4429   -3.4779    0.0000 O   0  0  0  0  0  0  0  0  0  0  0  0
   -0.2375   -1.9528    0.0000 O   0  0  0  0  0  0  0  0  0  0  0  0
   -0.9425   -0.9926    0.0000 O   0  0  0  0  0  0  0  0  0  0  0  0
   -4.6630    2.2828    0.0000 O   0  0  0  0  0  0  0  0  0  0  0  0
   -4.6630    4.0582    0.0000 O   0  0  0  0  0  0  0  0  0  0  0  0
   -5.4334    2.7380    0.0000 C   0  0  0  0  0  0  0  0  0  0  0  0
   -5.4433    3.6130    0.0000 C   0  0  0  0  0  0  0  0  0  0  0  0
    0.0274    3.1678    0.0000 H   0  0  0  0  0  0  0  0  0  0  0  0
   -2.2881    1.8727    0.0000 H   0  0  0  0  0  0  0  0  0  0  0  0
    2.7428   -0.1676    0.0000 H   0  0  0  0  0  0  0  0  0  0  0  0
  2  4  1  0  0  0  0
  3 10  1  0  0  0  0
  4  1  1  0  0  0  0
  5  1  2  0  0  0  0
  6  3  1  0  0  0  0
  7  1  1  0  0  0  0
  8 11  1  0  0  0  0
  9  8  1  0  0  0  0
 10  7  1  0  0  0  0
 11 32  1  0  0  0  0
 12 23  1  0  0  0  0
 13 11  1  0  0  0  0
 14 16  1  0  0  0  0
 15 25  1  0  0  0  0
 16 13  1  0  0  0  0
 17 18  1  0  0  0  0
 18  5  1  0  0  0  0
 19 12  1  0  0  0  0
 20 21  1  0  0  0  0
 21  5  1  0  0  0  0
 22  6  2  0  0  0  0
 23 35  1  0  0  0  0
 24 20  1  0  0  0  0
 25 33  1  0  0  0  0
 26 15  2  0  0  0  0
 27 23  1  0  0  0  0
 28  4  2  0  0  0  0
 29 22  1  0  0  0  0
 30 26  1  0  0  0  0
 31 39  1  0  0  0  0
 32 38  1  0  0  0  0
 33 10  1  0  0  0  0
 34  2  2  0  0  0  0
 35 36  1  0  0  0  0
 16 36  1  0  0  0  0
 37 18  2  0  0  0  0
 38 24  1  0  0  0  0
 39 27  1  0  0  0  0
 40 24  2  0  0  0  0
  8 41  1  0  0  0  0
 12 42  1  0  0  0  0
  9 43  1  0  0  0  0
 14 44  1  0  0  0  0
 19 45  1  0  0  0  0
 31 46  1  0  0  0  0
 47 29  1  0  0  0  0
 48 30  1  0  0  0  0
 49 47  1  0  0  0  0
 50 48  1  0  0  0  0
 10 51  1  0  0  0  0
  3 52  1  0  0  0  0
 20 53  1  6  0  0  0
  2  3  1  0  0  0  0
 20 17  1  0  0  0  0
 37 28  1  0  0  0  0
 15  6  1  0  0  0  0
 30 29  2  0  0  0  0
 14  9  1  0  0  0  0
 31 19  1  0  0  0  0
M  END
>  <IDNUMBER> (N039-0028)
N039-0028

>  <available> (N039-0028)
186

>  <H_acceptor> (N039-0028)
16

>  <H_donor> (N039-0028)
6

>  <B_rotN> (N039-0028)
15

>  <N_O> (N039-0028)
16

>  <logP> (N039-0028)
-0.14

>  <logD> (N039-0028)
0.08

>  <logSw> (N039-0028)
-3.5

>  <PSA> (N039-0028)
221.52

>  <Chiral_centers> (N039-0028)
12

>  <Name> (N039-0028)
16,17-DIMETHOXY-6-{3-[(3,4,5-TRIHYDROXY-6-{[(3,4,5-TRIHYDROXYOXAN-2-YL)OXY]METHYL}OXAN-2-YL)OXY]PROP-1-EN-2-YL}-2,7,20-TRIOXAPENTACYCLO[11.8.0.0^(3,11).0^(4,8).0^(14,19)]HENICOSA-3(11),4(8),9,14,16,18
-HEXAEN-12-ONE

>  <Smile> (N039-0028)
COc1cc2c(C3C(=O)c4c(OC3CO2)c2c(OC(C(COC3C(O)C(C(C(O3)COC3C(O)C(C(CO3)O)O)O)O)=C)C2)cc4)cc1OC

>  <Collection> (N039-0028)
DC

>  <InChI Key> (N039-0028)
CMQOKNQYLSMKJC-UMCNTMQHSA-N

>  <PERCENTSP3> (N039-0028)
55.9

$$$$

  -ISIS-  -- StrEd -- 

 30 33  0  0  0  0  0  0  0  0999 V2000
    0.9389    0.5189    0.0000 C   0  0  0  0  0  0  0  0  0  0  0  0
   -1.6602   -0.9635    0.0000 C   0  0  0  0  0  0  0  0  0  0  0  0
    1.8876    0.8302    0.0000 C   0  0  0  0  0  0  0  0  0  0  0  0
    0.9389   -0.4742    0.0000 C   0  0  0  0  0  0  0  0  0  0  0  0
   -1.6602   -1.9715    0.0000 C   0  0  0  0  0  0  0  0  0  0  0  0
   -0.8055   -0.4742    0.0000 C   0  0  0  0  0  0  0  0  0  0  0  0
    0.0940   -0.9635    0.0000 C   0  0  0  0  0  0  0  0  0  0  0  0
    2.4558    0.0594    0.0000 C   0  0  0  0  0  0  0  0  0  0  0  0
   -0.8055   -2.4659    0.0000 C   0  0  0  0  0  0  0  0  0  0  0  0
    0.0593    1.0326    0.0000 C   0  0  0  0  0  0  0  0  0  0  0  0
    3.2019    1.9814    0.0000 N   0  0  0  0  0  0  0  0  0  0  0  0
    1.8876   -0.7706    0.0000 C   0  0  0  0  0  0  0  0  0  0  0  0
    0.0940   -1.9715    0.0000 C   0  0  0  0  0  0  0  0  0  0  0  0
    2.2434    1.7789    0.0000 C   0  0  0  0  0  0  0  0  0  0  0  0
   -0.8055    0.5189    0.0000 C   0  0  0  0  0  0  0  0  0  0  0  0
   -2.5250   -0.4742    0.0000 C   0  0  0  0  0  0  0  0  0  0  0  0
   -2.5250   -2.4659    0.0000 C   0  0  0  0  0  0  0  0  0  0  0  0
   -4.2693   -3.4738    0.0000 C   0  0  0  0  0  0  0  0  0  0  0  0
    4.4817    3.1179    0.0000 C   0  0  0  0  0  0  0  0  0  0  0  0
    3.5230    2.9154    0.0000 O   0  0  0  0  0  0  0  0  0  0  0  0
   -4.2693   -2.4904    0.0000 O   0  0  0  0  0  0  0  0  0  0  0  0
   -3.4044   -1.9715    0.0000 C   0  0  0  0  0  0  0  0  0  0  0  0
   -3.4392   -4.0815    0.0000 O   0  0  0  0  0  0  0  0  0  0  0  0
    4.9215    4.0815    0.0000 O   0  0  0  0  0  0  0  0  0  0  0  0
   -3.4044   -0.9635    0.0000 C   0  0  0  0  0  0  0  0  0  0  0  0
    0.9389    1.5516    0.0000 C   0  0  0  0  0  0  0  0  0  0  0  0
   -1.6602    0.0346    0.0000 C   0  0  0  0  0  0  0  0  0  0  0  0
    1.5912    2.5497    0.0000 C   0  0  0  0  0  0  0  0  0  0  0  0
   -5.0993   -3.9480    0.0000 C   0  0  0  0  0  0  0  0  0  0  0  0
    5.0993    2.3718    0.0000 C   0  0  0  0  0  0  0  0  0  0  0  0
  6  2  1  0  0  0  0
  3  1  1  0  0  0  0
  4  1  1  0  0  0  0
  5  2  1  0  0  0  0
  6 15  1  0  0  0  0
  7  4  1  0  0  0  0
  8  3  2  0  0  0  0
  9 13  1  0  0  0  0
 10  1  1  0  0  0  0
 11 14  2  0  0  0  0
 12  4  1  0  0  0  0
 13  7  1  0  0  0  0
 14  3  1  0  0  0  0
 15 10  1  0  0  0  0
 16  2  1  0  0  0  0
 17  5  1  0  0  0  0
 18 21  1  0  0  0  0
 19 20  1  0  0  0  0
 20 11  1  0  0  0  0
 22 21  1  0  0  0  0
 22 25  1  0  0  0  0
 23 18  2  0  0  0  0
 24 19  2  0  0  0  0
 25 16  1  0  0  0  0
  1 26  1  0  0  0  0
  2 27  1  0  0  0  0
 28 14  1  0  0  0  0
 29 18  1  0  0  0  0
 30 19  1  0  0  0  0
 12  8  1  0  0  0  0
  7  6  1  0  0  0  0
  9  5  2  0  0  0  0
 22 17  1  0  0  0  0
M  END
>  <IDNUMBER> (N039-0037)
N039-0037

>  <available> (N039-0037)
354

>  <H_acceptor> (N039-0037)
5

>  <H_donor> (N039-0037)
0

>  <B_rotN> (N039-0037)
5

>  <N_O> (N039-0037)
5

>  <logP> (N039-0037)
3.72

>  <logD> (N039-0037)
5.9

>  <logSw> (N039-0037)
-6.85

>  <PSA> (N039-0037)
64.96

>  <Chiral_centers> (N039-0037)
6

>  <Name> (N039-0037)
(E)-{1-[7-(acetyloxy)-9a,11a-dimethyl-3H,3aH,3bH,4H,6H,7H,8H,9H,9aH,9bH,10H,11H,11aH-cyclopenta[a]phenanthren-1-yl]ethylidene}amino acetate

>  <Smile> (N039-0037)
CC(ON=C(C1C2(C)CCC3C4(C)C(=CCC3C2CC=1)CC(OC(=O)C)CC4)C)=O

>  <Collection> (N039-0037)
DC

>  <InChI Key> (N039-0037)
IYRSSYWRXNNHCW-CVKSISIWSA-N

>  <PERCENTSP3> (N039-0037)
72

$$$$

  -ISIS-  -- StrEd -- 

 50 57  0  0  0  0  0  0  0  0999 V2000
   -0.3801    1.3490    0.0000 C   0  0  0  0  0  0  0  0  0  0  0  0
    0.3533    1.7878    0.0000 C   0  0  0  0  0  0  0  0  0  0  0  0
    1.7772    1.7878    0.0000 C   0  0  2  0  0  0  0  0  0  0  0  0
    1.7772    2.6121    0.0000 C   0  0  0  0  0  0  0  0  0  0  0  0
   -0.3801    0.5405    0.0000 C   0  0  0  0  0  0  0  0  0  0  0  0
    1.0705    1.3490    0.0000 C   0  0  0  0  0  0  0  0  0  0  0  0
   -0.3801    2.3389    0.0000 C   0  0  0  0  0  0  0  0  0  0  0  0
    3.5113   -2.4890    0.0000 C   0  0  0  0  0  0  0  0  0  0  0  0
    2.7192   -3.4687    0.0000 C   0  0  0  0  0  0  0  0  0  0  0  0
   -3.1901   -1.8841    0.0000 C   0  0  0  0  0  0  0  0  0  0  0  0
    1.2419   -3.4687    0.0000 C   0  0  0  0  0  0  0  0  0  0  0  0
    2.5477    2.8529    0.0000 C   0  0  0  0  0  0  0  0  0  0  0  0
   -2.4996   -1.0009    0.0000 C   0  0  0  0  0  0  0  0  0  0  0  0
    2.7192   -1.4507    0.0000 O   0  0  0  0  0  0  0  0  0  0  0  0
   -1.1132    0.1285    0.0000 C   0  0  2  0  0  0  0  0  0  0  0  0
    2.9977    2.2000    0.0000 C   0  0  0  0  0  0  0  0  0  0  0  0
    1.0705    0.5405    0.0000 C   0  0  0  0  0  0  0  0  0  0  0  0
    0.4710   -2.4890    0.0000 C   0  0  0  0  0  0  0  0  0  0  0  0
    2.5477    1.5414    0.0000 C   0  0  0  0  0  0  0  0  0  0  0  0
   -4.5176   -1.8841    0.0000 C   0  0  0  0  0  0  0  0  0  0  0  0
    1.2419   -1.4507    0.0000 C   0  0  0  0  0  0  0  0  0  0  0  0
    0.3533    0.1285    0.0000 C   0  0  0  0  0  0  0  0  0  0  0  0
    3.9235    2.2000    0.0000 O   0  0  0  0  0  0  0  0  0  0  0  0
    3.5113   -0.7279    0.0000 O   0  0  0  0  0  0  0  0  0  0  0  0
    0.3533    2.6121    0.0000 C   0  0  0  0  0  0  0  0  0  0  0  0
   -1.7555    0.5405    0.0000 C   0  0  0  0  0  0  0  0  0  0  0  0
    2.9707    3.5488    0.0000 C   0  0  1  0  0  0  0  0  0  0  0  0
   -3.1901   -0.1019    0.0000 O   0  0  0  0  0  0  0  0  0  0  0  0
   -1.1132    1.7878    0.0000 C   0  0  0  0  0  0  0  0  0  0  0  0
   -2.4996    0.1177    0.0000 O   0  0  0  0  0  0  0  0  0  0  0  0
    1.0705    3.0349    0.0000 C   0  0  0  0  0  0  0  0  0  0  0  0
    4.2340    2.8798    0.0000 C   0  0  0  0  0  0  0  0  0  0  0  0
   -5.2241   -1.0009    0.0000 C   0  0  0  0  0  0  0  0  0  0  0  0
    3.8216    3.5488    0.0000 C   0  0  0  0  0  0  0  0  0  0  0  0
   -4.5176   -0.1019    0.0000 C   0  0  0  0  0  0  0  0  0  0  0  0
   -1.7555    1.3490    0.0000 C   0  0  0  0  0  0  0  0  0  0  0  0
    2.7192   -4.3677    0.0000 O   0  0  0  0  0  0  0  0  0  0  0  0
   -3.1901   -2.6442    0.0000 O   0  0  0  0  0  0  0  0  0  0  0  0
    1.2633   -2.5157    0.0000 O   0  0  0  0  0  0  0  0  0  0  0  0
    1.7662    0.8244    0.0000 C   0  0  0  0  0  0  0  0  0  0  0  0
    0.5085   -3.7361    0.0000 O   0  0  0  0  0  0  0  0  0  0  0  0
    1.7772    3.5756    0.0000 C   0  0  0  0  0  0  0  0  0  0  0  0
   -4.5176   -1.0383    0.0000 O   0  0  0  0  0  0  0  0  0  0  0  0
    5.2241    2.8690    0.0000 O   0  0  0  0  0  0  0  0  0  0  0  0
   -5.2241   -2.0394    0.0000 O   0  0  0  0  0  0  0  0  0  0  0  0
    1.2419   -0.8350    0.0000 C   0  0  0  0  0  0  0  0  0  0  0  0
   -1.5844   -0.6156    0.0000 C   0  0  0  0  0  0  0  0  0  0  0  0
   -0.7921   -0.5889    0.0000 C   0  0  0  0  0  0  0  0  0  0  0  0
    2.4730    4.3677    0.0000 C   0  0  0  0  0  0  0  0  0  0  0  0
    0.3801   -0.3961    0.0000 O   0  0  0  0  0  0  0  0  0  0  0  0
  2  1  1  0  0  0  0
  6  3  1  0  0  0  0
  4 31  1  0  0  0  0
  5  1  1  0  0  0  0
  6  2  1  0  0  0  0
  1  7  1  0  0  0  0
  8 24  1  0  0  0  0
  9  8  1  0  0  0  0
 10 13  1  0  0  0  0
 11  9  1  0  0  0  0
 12  4  1  0  0  0  0
 13 30  1  0  0  0  0
 14  8  1  0  0  0  0
 15  5  1  0  0  0  0
 16 19  1  0  0  0  0
 17 22  1  0  0  0  0
 18 21  1  0  0  0  0
 19  3  1  0  0  0  0
 20 10  1  0  0  0  0
 21 14  1  0  0  0  0
 22  5  1  0  0  0  0
 23 16  1  0  0  0  0
 17 24  1  0  0  0  0
  2 25  1  0  0  0  0
 26 36  1  0  0  0  0
 27 12  1  0  0  0  0
 28 13  1  0  0  0  0
 29  1  1  0  0  0  0
 26 30  1  0  0  0  0
 31 25  1  0  0  0  0
 32 23  1  0  0  0  0
 33 35  1  0  0  0  0
 34 27  1  0  0  0  0
 35 28  1  0  0  0  0
 36 29  1  0  0  0  0
  9 37  1  0  0  0  0
 10 38  1  0  0  0  0
 11 39  1  0  0  0  0
  3 40  1  6  0  0  0
 18 41  1  0  0  0  0
  4 42  1  0  0  0  0
 20 43  1  0  0  0  0
 32 44  1  0  0  0  0
 33 45  1  0  0  0  0
 21 46  1  0  0  0  0
 47 15  1  0  0  0  0
 15 48  1  6  0  0  0
 27 49  1  6  0  0  0
 50 46  1  0  0  0  0
  2  7  1  0  0  0  0
 15 26  1  0  0  0  0
  6 17  1  0  0  0  0
  3  4  1  0  0  0  0
 12 16  1  0  0  0  0
 34 32  1  0  0  0  0
 33 20  1  0  0  0  0
 11 18  1  0  0  0  0
M  END
>  <IDNUMBER> (N039-0044)
N039-0044

>  <available> (N039-0044)
212

>  <H_acceptor> (N039-0044)
13

>  <H_donor> (N039-0044)
8

>  <B_rotN> (N039-0044)
13

>  <N_O> (N039-0044)
13

>  <logP> (N039-0044)
-0.2

>  <logD> (N039-0044)
-0.19

>  <logSw> (N039-0044)
-1.01

>  <PSA> (N039-0044)
207.99

>  <Chiral_centers> (N039-0044)
21

>  <Name> (N039-0044)
2-({8-HYDROXY-4,6,12,17,17-PENTAMETHYL-18-[(3,4,5-TRIHYDROXYOXAN-2-YL)OXY]-9-OXAHEXACYCLO[11.9.0.0^(1,21).0^(4,12).0^(5,10).0^(16,21)]DOCOSAN-14-YL}OXY)-6-(HYDROXYMETHYL)OXANE-3,4,5-TRIOL

>  <Smile> (N039-0044)
OCC1OC(OC2C3C4(C5(CCC(C(C5C2)(C)C)OC2C(O)C(C(CO2)O)O)C4)CCC2(C3(C)CC3C2C(C)CC(O3)O)C)C(C(C1O)O)O

>  <Collection> (N039-0044)
DC

>  <InChI Key> (N039-0044)
RFRQHBOLMUEMMH-IGSWCADISA-N

>  <PERCENTSP3> (N039-0044)
100

$$$$

  -ISIS-  -- StrEd -- 

 30 32  0  0  0  0  0  0  0  0999 V2000
   -3.4641   -0.9892    0.0000 C   0  0  0  0  0  0  0  0  0  0  0  0
   -2.6045   -0.5060    0.0000 C   0  0  1  0  0  0  0  0  0  0  0  0
   -1.7453   -0.9892    0.0000 C   0  0  1  0  0  0  0  0  0  0  0  0
    3.4863   -0.9667    0.0000 O   0  0  0  0  0  0  0  0  0  0  0  0
    2.6271   -0.4834    0.0000 C   0  0  0  0  0  0  0  0  0  0  0  0
    4.3456   -0.4834    0.0000 C   0  0  0  0  0  0  0  0  0  0  0  0
    3.4863    1.0517    0.0000 C   0  0  0  0  0  0  0  0  0  0  0  0
   -3.4641   -2.0096    0.0000 C   0  0  0  0  0  0  0  0  0  0  0  0
   -0.8638   -0.4834    0.0000 C   0  0  0  0  0  0  0  0  0  0  0  0
   -4.3546   -0.4834    0.0000 C   0  0  0  0  0  0  0  0  0  0  0  0
    4.3456    0.5370    0.0000 C   0  0  0  0  0  0  0  0  0  0  0  0
    2.6271    0.5370    0.0000 C   0  0  0  0  0  0  0  0  0  0  0  0
   -2.6045    0.5146    0.0000 C   0  0  0  0  0  0  0  0  0  0  0  0
    1.7677   -0.9667    0.0000 C   0  0  0  0  0  0  0  0  0  0  0  0
   -1.7453    2.0182    0.0000 C   0  0  0  0  0  0  0  0  0  0  0  0
   -1.7453   -2.0096    0.0000 C   0  0  2  0  0  0  0  0  0  0  0  0
    5.2362   -0.9892    0.0000 O   0  0  0  0  0  0  0  0  0  0  0  0
   -2.6045   -2.4928    0.0000 C   0  0  0  0  0  0  0  0  0  0  0  0
   -2.6045    2.5240    0.0000 O   0  0  0  0  0  0  0  0  0  0  0  0
    0.0268   -0.9892    0.0000 O   0  0  0  0  0  0  0  0  0  0  0  0
    0.9085   -0.4834    0.0000 C   0  0  0  0  0  0  0  0  0  0  0  0
    1.7677    1.0517    0.0000 C   0  0  0  0  0  0  0  0  0  0  0  0
   -1.7453    1.0204    0.0000 C   0  0  0  0  0  0  0  0  0  0  0  0
   -0.8638    2.5240    0.0000 O   0  0  0  0  0  0  0  0  0  0  0  0
    0.9085    0.5370    0.0000 C   0  0  0  0  0  0  0  0  0  0  0  0
   -1.7320    0.1073    0.0000 C   0  0  0  0  0  0  0  0  0  0  0  0
   -4.3232    0.5685    0.0000 C   0  0  0  0  0  0  0  0  0  0  0  0
   -5.2362   -0.9892    0.0000 C   0  0  0  0  0  0  0  0  0  0  0  0
   -0.8324   -2.5240    0.0000 C   0  0  0  0  0  0  0  0  0  0  0  0
   -2.0452   -0.1612    0.0000 H   0  0  0  0  0  0  0  0  0  0  0  0
  2  1  1  0  0  0  0
  3  2  1  0  0  0  0
  4  5  1  0  0  0  0
  5 14  1  0  0  0  0
  6  4  1  0  0  0  0
  7 12  1  0  0  0  0
  8  1  1  0  0  0  0
  3  9  1  1  0  0  0
 10  1  2  0  0  0  0
 11  7  2  0  0  0  0
 12 22  1  0  0  0  0
 13  2  1  0  0  0  0
 14 21  2  0  0  0  0
 15 23  1  0  0  0  0
 16 18  1  0  0  0  0
 17  6  2  0  0  0  0
 18  8  1  0  0  0  0
 19 15  2  0  0  0  0
 20  9  1  0  0  0  0
 21 20  1  0  0  0  0
 22 25  2  0  0  0  0
 23 13  1  0  0  0  0
 24 15  1  0  0  0  0
 25 21  1  0  0  0  0
  3 26  1  6  0  0  0
 27 10  1  0  0  0  0
 28 10  1  0  0  0  0
 16 29  1  1  0  0  0
  2 30  1  1  0  0  0
  3 16  1  0  0  0  0
 12  5  2  0  0  0  0
  6 11  1  0  0  0  0
M  END
>  <IDNUMBER> (N042-0012)
N042-0012

>  <available> (N042-0012)
159

>  <H_acceptor> (N042-0012)
5

>  <H_donor> (N042-0012)
1

>  <B_rotN> (N042-0012)
6

>  <N_O> (N042-0012)
5

>  <logP> (N042-0012)
4.67

>  <logD> (N042-0012)
4.21

>  <logSw> (N042-0012)
-4.15

>  <PSA> (N042-0012)
72.83

>  <Chiral_centers> (N042-0012)
3

>  <Name> (N042-0012)
3-(2,3-dimethyl-2-{[(2-oxo-2H-chromen-7-yl)oxy]methyl}-6-(propan-2-ylidene)cyclohexyl)propanoic acid

>  <Smile> (N042-0012)
CC1C(C(C(=C(C)C)CC1)CCC(=O)O)(C)COc1cc2OC(C=Cc2cc1)=O

>  <Collection> (N042-0012)
DC

>  <CLNUMBER> (N042-0012)
CV0119

>  <InChI Key> (N042-0012)
CVWWNYPTZYQCSE-YFBXQHAESA-N

>  <PERCENTSP3> (N042-0012)
50

$$$$

  -ISIS-  -- StrEd -- 

 22 24  0  0  0  0  0  0  0  0999 V2000
   -0.9942   -0.3401    0.0000 C   0  0  2  0  0  0  0  0  0  0  0  0
    0.0242   -0.3401    0.0000 C   0  0  2  0  0  0  0  0  0  0  0  0
   -1.2802   -1.3286    0.0000 O   0  0  0  0  0  0  0  0  0  0  0  0
   -0.4850   -1.8823    0.0000 C   0  0  0  0  0  0  0  0  0  0  0  0
    0.3252   -1.3286    0.0000 C   0  0  0  0  0  0  0  0  0  0  0  0
   -1.5923    0.4886    0.0000 C   0  0  0  0  0  0  0  0  0  0  0  0
    0.6299    0.4292    0.0000 C   0  0  2  0  0  0  0  0  0  0  0  0
   -0.4664    1.8266    0.0000 C   0  0  1  0  0  0  0  0  0  0  0  0
   -1.3582    1.4103    0.0000 C   0  0  0  0  0  0  0  0  0  0  0  0
    0.4330    1.4103    0.0000 C   0  0  0  0  0  0  0  0  0  0  0  0
   -2.6256    0.3921    0.0000 C   0  0  0  0  0  0  0  0  0  0  0  0
   -2.9749    1.2840    0.0000 C   0  0  0  0  0  0  0  0  0  0  0  0
   -2.2316    1.9640    0.0000 C   0  0  0  0  0  0  0  0  0  0  0  0
    1.5850    0.1877    0.0000 O   0  0  0  0  0  0  0  0  0  0  0  0
    2.2613    0.8826    0.0000 C   0  0  0  0  0  0  0  0  0  0  0  0
   -0.4775   -2.8374    0.0000 O   0  0  0  0  0  0  0  0  0  0  0  0
    1.2617   -1.6779    0.0000 C   0  0  0  0  0  0  0  0  0  0  0  0
    2.1015    1.9157    0.0000 O   0  0  0  0  0  0  0  0  0  0  0  0
    0.5147    2.2650    0.0000 O   0  0  0  0  0  0  0  0  0  0  0  0
   -0.4664    2.8374    0.0000 C   0  0  0  0  0  0  0  0  0  0  0  0
   -3.1793   -0.4181    0.0000 C   0  0  0  0  0  0  0  0  0  0  0  0
    3.1793    0.5333    0.0000 C   0  0  0  0  0  0  0  0  0  0  0  0
  2  1  1  0  0  0  0
  1  3  1  6  0  0  0
  4  3  1  0  0  0  0
  2  5  1  1  0  0  0
  6  1  1  0  0  0  0
  7  2  1  0  0  0  0
  9  8  1  0  0  0  0
  9  6  1  0  0  0  0
 10  7  1  0  0  0  0
 11  6  1  0  0  0  0
 12 11  2  0  0  0  0
 13  9  1  0  0  0  0
  7 14  1  6  0  0  0
 15 14  1  0  0  0  0
 16  4  2  0  0  0  0
 17  5  2  0  0  0  0
 18 15  2  0  0  0  0
  8 19  1  6  0  0  0
  8 20  1  1  0  0  0
 21 11  1  0  0  0  0
 22 15  1  0  0  0  0
  4  5  1  0  0  0  0
 13 12  1  0  0  0  0
 10  8  1  0  0  0  0
M  END
>  <IDNUMBER> (N042-0026)
N042-0026

>  <available> (N042-0026)
72

>  <H_acceptor> (N042-0026)
5

>  <H_donor> (N042-0026)
1

>  <B_rotN> (N042-0026)
1

>  <N_O> (N042-0026)
5

>  <logP> (N042-0026)
0.949

>  <logD> (N042-0026)
2.7774

>  <logSw> (N042-0026)
-3.4807

>  <PSA> (N042-0026)
72.83

>  <Chiral_centers> (N042-0026)
6

>  <Name> (N042-0026)
6-hydroxy-6,9-dimethyl-3-methylidene-2-oxo-2H,3H,3aH,4H,5H,6H,6aH,7H,9aH,9bH-azuleno[4,5-b]furan-4-yl acetate

>  <Smile> (N042-0026)
O1[C@H]2[C@H](C(=C)C1=O)[C@H](C[C@](C1C2C(=CC1)C)(O)C)OC(=O)C

>  <Collection> (N042-0026)
NC

>  <InChI Key> (N042-0026)
XMJROHDIQQOWTO-LUZBXWOUSA-N

>  <PERCENTSP3> (N042-0026)
64.7

$$$$

  -ISIS-  -- StrEd -- 

 25 28  0  0  0  0  0  0  0  0999 V2000
    0.2842    0.5522    0.0000 C   0  0  2  0  0  0  0  0  0  0  0  0
   -1.3887   -0.3754    0.0000 C   0  0  2  0  0  0  0  0  0  0  0  0
   -2.2144   -0.8634    0.0000 C   0  0  2  0  0  0  0  0  0  0  0  0
   -0.5683    1.0402    0.0000 C   0  0  0  0  0  0  0  0  0  0  0  0
    1.1046    1.9678    0.0000 C   0  0  2  0  0  0  0  0  0  0  0  0
   -1.3887    0.5522    0.0000 C   0  0  2  0  0  0  0  0  0  0  0  0
    2.1717    1.0562    0.0000 C   0  0  0  0  0  0  0  0  0  0  0  0
    1.1046    1.0402    0.0000 C   0  0  0  0  0  0  0  0  0  0  0  0
   -2.6756   -1.6837    0.0000 C   0  0  0  0  0  0  0  0  0  0  0  0
    1.3352   -0.0000    0.0000 C   0  0  0  0  0  0  0  0  0  0  0  0
   -0.5683   -0.8634    0.0000 C   0  0  0  0  0  0  0  0  0  0  0  0
   -0.5683    1.9678    0.0000 C   0  0  0  0  0  0  0  0  0  0  0  0
    0.2842   -0.3754    0.0000 C   0  0  0  0  0  0  0  0  0  0  0  0
    3.1797    1.0562    0.0000 N   0  0  0  0  0  0  0  0  0  0  0  0
    0.2842    2.4556    0.0000 C   0  0  0  0  0  0  0  0  0  0  0  0
   -2.2144   -2.5094    0.0000 O   0  0  0  0  0  0  0  0  0  0  0  0
   -3.6300   -1.6837    0.0000 O   0  0  0  0  0  0  0  0  0  0  0  0
   -3.0402   -0.3754    0.0000 C   0  0  0  0  0  0  0  0  0  0  0  0
    3.6300    1.9947    0.0000 O   0  0  0  0  0  0  0  0  0  0  0  0
   -1.7264   -1.6837    0.0000 C   0  0  0  0  0  0  0  0  0  0  0  0
   -2.2144    1.0402    0.0000 C   0  0  0  0  0  0  0  0  0  0  0  0
    2.0321    2.5094    0.0000 C   0  0  0  0  0  0  0  0  0  0  0  0
   -3.0402    0.5522    0.0000 C   0  0  0  0  0  0  0  0  0  0  0  0
   -1.3887   -1.3245    0.0000 H   0  0  0  0  0  0  0  0  0  0  0  0
   -1.3887    1.5067    0.0000 H   0  0  0  0  0  0  0  0  0  0  0  0
  2 11  1  0  0  0  0
  3  2  1  0  0  0  0
  4  1  1  0  0  0  0
  5  8  1  0  0  0  0
  6  4  1  0  0  0  0
  7 10  1  0  0  0  0
  8  1  1  0  0  0  0
  3  9  1  6  0  0  0
  1 10  1  6  0  0  0
 11 13  1  0  0  0  0
 12  4  1  0  0  0  0
 13  1  1  0  0  0  0
 14  7  2  0  0  0  0
 15  5  1  0  0  0  0
 16  9  2  0  0  0  0
 17  9  1  0  0  0  0
 18  3  1  0  0  0  0
 19 14  1  0  0  0  0
  3 20  1  1  0  0  0
 21  6  1  0  0  0  0
 22  5  1  0  0  0  0
 23 21  1  0  0  0  0
  2 24  1  1  0  0  0
  6 25  1  6  0  0  0
  5  7  1  6  0  0  0
  2  6  1  0  0  0  0
 15 12  1  0  0  0  0
 18 23  1  0  0  0  0
M  END
>  <IDNUMBER> (N045-0003)
N045-0003

>  <available> (N045-0003)
87

>  <H_acceptor> (N045-0003)
4

>  <H_donor> (N045-0003)
2

>  <B_rotN> (N045-0003)
3

>  <N_O> (N045-0003)
4

>  <logP> (N045-0003)
3.45

>  <logD> (N045-0003)
2.38

>  <logSw> (N045-0003)
-1.4

>  <PSA> (N045-0003)
69.89

>  <Chiral_centers> (N045-0003)
6

>  <Name> (N045-0003)
(1R,4S,5R,9S,13S)-14-hydroxyimino-5,13-dimethyltetracyclo[11.2.1.0~1,10~.0~4,9~]hexadecane-5-carboxylic acid

>  <Smile> (N045-0003)
[C@]123C([C@]4([C@@]([C@](C(=O)O)(CCC4)C)(CC1)[H])[H])CC[C@](/C(/C2)=N\O)(C3)C

>  <Collection> (N045-0003)
DC

>  <InChI Key> (N045-0003)
URBNUDAKGSSGTA-MSRDUZLJSA-N

>  <PERCENTSP3> (N045-0003)
89.5

$$$$

  -ISIS-  -- StrEd -- 

 48 55  0  0  0  0  0  0  0  0999 V2000
   -3.1936   -0.9419    0.0000 C   0  0  2  0  0  0  0  0  0  0  0  0
    3.1366    0.8736    0.0000 C   0  0  2  0  0  0  0  0  0  0  0  0
   -4.8447   -1.8470    0.0000 C   0  0  2  0  0  0  0  0  0  0  0  0
    4.8219    1.7960    0.0000 C   0  0  2  0  0  0  0  0  0  0  0  0
   -5.6757   -2.3253    0.0000 C   0  0  2  0  0  0  0  0  0  0  0  0
    5.6642    2.2801    0.0000 C   0  0  2  0  0  0  0  0  0  0  0  0
   -4.0364   -0.4583    0.0000 C   0  0  0  0  0  0  0  0  0  0  0  0
    3.9791    0.3958    0.0000 C   0  0  0  0  0  0  0  0  0  0  0  0
   -2.3683    0.4468    0.0000 C   0  0  2  0  0  0  0  0  0  0  0  0
    2.2885   -0.4809    0.0000 C   0  0  2  0  0  0  0  0  0  0  0  0
    4.8219    0.8736    0.0000 C   0  0  2  0  0  0  0  0  0  0  0  0
   -4.8447   -0.9419    0.0000 C   0  0  2  0  0  0  0  0  0  0  0  0
   -1.2922   -0.4410    0.0000 C   0  0  0  0  0  0  0  0  0  0  0  0
    1.2183    0.3958    0.0000 C   0  0  0  0  0  0  0  0  0  0  0  0
   -0.3017   -0.4410    0.0000 N   0  0  0  0  0  0  0  0  0  0  0  0
    0.2050    0.3958    0.0000 N   0  0  0  0  0  0  0  0  0  0  0  0
   -2.3683   -0.4583    0.0000 C   0  0  0  0  0  0  0  0  0  0  0  0
    2.2885    0.3958    0.0000 C   0  0  0  0  0  0  0  0  0  0  0  0
    6.1254    3.0882    0.0000 C   0  0  0  0  0  0  0  0  0  0  0  0
   -6.1540   -3.1226    0.0000 C   0  0  0  0  0  0  0  0  0  0  0  0
   -2.1348   -1.4659    0.0000 C   0  0  0  0  0  0  0  0  0  0  0  0
    2.0493    1.4431    0.0000 C   0  0  0  0  0  0  0  0  0  0  0  0
    3.9791    2.2801    0.0000 C   0  0  0  0  0  0  0  0  0  0  0  0
   -4.0364   -2.3253    0.0000 C   0  0  0  0  0  0  0  0  0  0  0  0
    3.9791   -0.4809    0.0000 C   0  0  0  0  0  0  0  0  0  0  0  0
   -4.0364    0.4468    0.0000 C   0  0  0  0  0  0  0  0  0  0  0  0
    3.1366    1.7960    0.0000 C   0  0  0  0  0  0  0  0  0  0  0  0
   -3.1936   -1.8470    0.0000 C   0  0  0  0  0  0  0  0  0  0  0  0
    3.1366   -0.9819    0.0000 C   0  0  0  0  0  0  0  0  0  0  0  0
   -3.1936    0.9308    0.0000 C   0  0  0  0  0  0  0  0  0  0  0  0
    5.6642    3.9139    0.0000 O   0  0  0  0  0  0  0  0  0  0  0  0
   -5.6757   -3.9139    0.0000 O   0  0  0  0  0  0  0  0  0  0  0  0
    7.0988    3.0882    0.0000 O   0  0  0  0  0  0  0  0  0  0  0  0
   -7.0988   -3.1226    0.0000 O   0  0  0  0  0  0  0  0  0  0  0  0
    6.5067    1.7960    0.0000 C   0  0  0  0  0  0  0  0  0  0  0  0
   -6.5067   -1.8470    0.0000 C   0  0  0  0  0  0  0  0  0  0  0  0
   -5.1806   -3.1226    0.0000 C   0  0  0  0  0  0  0  0  0  0  0  0
    4.7820    3.3959    0.0000 C   0  0  0  0  0  0  0  0  0  0  0  0
   -5.6757   -0.4583    0.0000 C   0  0  0  0  0  0  0  0  0  0  0  0
    5.6642    0.3958    0.0000 C   0  0  0  0  0  0  0  0  0  0  0  0
   -1.4344    0.9650    0.0000 C   0  0  0  0  0  0  0  0  0  0  0  0
    1.3663   -1.0389    0.0000 C   0  0  0  0  0  0  0  0  0  0  0  0
   -6.5067   -0.9419    0.0000 C   0  0  0  0  0  0  0  0  0  0  0  0
    6.5067    0.8736    0.0000 C   0  0  0  0  0  0  0  0  0  0  0  0
   -4.8447   -2.7697    0.0000 H   0  0  0  0  0  0  0  0  0  0  0  0
   -4.8447   -0.0197    0.0000 C   0  0  0  0  0  0  0  0  0  0  0  0
    4.8219    2.7468    0.0000 H   0  0  0  0  0  0  0  0  0  0  0  0
    4.8219   -0.0484    0.0000 C   0  0  0  0  0  0  0  0  0  0  0  0
  2 22  1  6  0  0  0
  3 24  1  0  0  0  0
  4 23  1  0  0  0  0
  5  3  1  0  0  0  0
  6  4  1  0  0  0  0
  7  1  1  0  0  0  0
  8  2  1  0  0  0  0
  9 17  1  0  0  0  0
 10 14  1  6  0  0  0
 11  8  1  0  0  0  0
 12  7  1  0  0  0  0
 13 21  1  0  0  0  0
 14 16  2  0  0  0  0
 15 13  2  0  0  0  0
 16 15  1  0  0  0  0
 17  1  1  0  0  0  0
 18 10  1  0  0  0  0
  6 19  1  6  0  0  0
  5 20  1  6  0  0  0
  1 21  1  6  0  0  0
 22 14  1  0  0  0  0
 23 27  1  0  0  0  0
 24 28  1  0  0  0  0
 25 29  1  0  0  0  0
 26  7  1  0  0  0  0
 27  2  1  0  0  0  0
 28  1  1  0  0  0  0
 29 10  1  0  0  0  0
 30  9  1  0  0  0  0
 31 19  2  0  0  0  0
 32 20  2  0  0  0  0
 33 19  1  0  0  0  0
 34 20  1  0  0  0  0
 35  6  1  0  0  0  0
 36  5  1  0  0  0  0
  5 37  1  1  0  0  0
  6 38  1  1  0  0  0
 39 12  1  0  0  0  0
 40 11  1  0  0  0  0
 41  9  1  0  0  0  0
 42 10  1  0  0  0  0
 43 39  1  0  0  0  0
 44 40  1  0  0  0  0
  3 45  1  1  0  0  0
 12 46  1  6  0  0  0
  4 47  1  1  0  0  0
 11 48  1  6  0  0  0
  9 13  1  6  0  0  0
 12  3  1  0  0  0  0
 26 30  1  0  0  0  0
 43 36  1  0  0  0  0
 18  2  1  0  0  0  0
 25  8  1  0  0  0  0
  4 11  1  0  0  0  0
 35 44  1  0  0  0  0
M  END
>  <IDNUMBER> (N045-0004)
N045-0004

>  <available> (N045-0004)
1

>  <H_acceptor> (N045-0004)
6

>  <H_donor> (N045-0004)
2

>  <B_rotN> (N045-0004)
5

>  <N_O> (N045-0004)
6

>  <logP> (N045-0004)
7.84

>  <logD> (N045-0004)
7.23

>  <logSw> (N045-0004)
-5.66

>  <PSA> (N045-0004)
99.32

>  <Chiral_centers> (N045-0004)
12

>  <Name> (N045-0004)
(14Z)-14-{2-[(14Z)-5-CARBOXY-5,9,13-TRIMETHYLTETRACYCLO[11.2.1.0^(1,10).0^(4,9)]HEXADECAN-14-YLIDENE]HYDRAZIN-1-YLIDENE}-5,9,13-TRIMETHYLTETRACYCLO[11.2.1.0^(1,10).0^(4,9)]HEXADECANE-5-CARBOXYLIC ACID

>  <Smile> (N045-0004)
CC12C(CCC34CC(C(C)(C3)CCC24)=NN=C2C3(CC4(CCC5C(C)(C(=O)O)CCCC5(C4CC3)C)C2)C)C(C)(C(=O)O)CCC1

>  <Collection> (N045-0004)
DC

>  <InChI Key> (N045-0004)
OQEOVYKKGASRBH-YBPOISLSSA-N

>  <PERCENTSP3> (N045-0004)
90

$$$$

  -ISIS-  -- StrEd -- 

 14 15  0  0  0  0  0  0  0  0999 V2000
    0.8572   -0.0033    0.0000 C   0  0  0  0  0  0  0  0  0  0  0  0
   -0.0055   -0.5045    0.0000 C   0  0  0  0  0  0  0  0  0  0  0  0
    0.8572    0.9969    0.0000 C   0  0  0  0  0  0  0  0  0  0  0  0
   -0.8727   -0.0033    0.0000 C   0  0  0  0  0  0  0  0  0  0  0  0
   -0.0055    1.4982    0.0000 C   0  0  0  0  0  0  0  0  0  0  0  0
   -0.8727    0.9881    0.0000 C   0  0  0  0  0  0  0  0  0  0  0  0
    2.6027   -0.0033    0.0000 N   0  0  0  0  0  0  0  0  0  0  0  0
    1.7355   -0.5045    0.0000 C   0  0  0  0  0  0  0  0  0  0  0  0
   -1.7443    1.4649    0.0000 O   0  0  0  0  0  0  0  0  0  0  0  0
    2.6027    0.9881    0.0000 C   0  0  0  0  0  0  0  0  0  0  0  0
   -1.7400   -0.4935    0.0000 O   0  0  0  0  0  0  0  0  0  0  0  0
    1.7355    1.4982    0.0000 C   0  0  0  0  0  0  0  0  0  0  0  0
    1.7422   -1.4982    0.0000 C   0  0  0  0  0  0  0  0  0  0  0  0
   -2.6027    0.0121    0.0000 C   0  0  0  0  0  0  0  0  0  0  0  0
  2  1  1  0  0  0  0
  3  1  2  0  0  0  0
  4  2  2  0  0  0  0
  5  3  1  0  0  0  0
  6  5  2  0  0  0  0
  7  8  1  0  0  0  0
  8  1  1  0  0  0  0
  9  6  1  0  0  0  0
 10  7  1  0  0  0  0
 11  4  1  0  0  0  0
 12  3  1  0  0  0  0
  8 13  1  0  0  0  0
 14 11  1  0  0  0  0
 12 10  1  0  0  0  0
  4  6  1  0  0  0  0
M  END
>  <IDNUMBER> (N049-0131)
N049-0131

>  <available> (N049-0131)
177

>  <H_acceptor> (N049-0131)
2

>  <H_donor> (N049-0131)
2

>  <B_rotN> (N049-0131)
2

>  <N_O> (N049-0131)
3

>  <logP> (N049-0131)
1.77

>  <logD> (N049-0131)
-1.17

>  <logSw> (N049-0131)
1.03

>  <PSA> (N049-0131)
41.49

>  <Chiral_centers> (N049-0131)
1

>  <Name> (N049-0131)
7-methoxy-1-methyl-1,2,3,4-tetrahydroisoquinolin-6-ol

>  <Smile> (N049-0131)
COc1cc2C(NCCc2cc1O)C

>  <Collection> (N049-0131)
DC

>  <InChI Key> (N049-0131)
YTPRLBGPGZHUPD-UHFFFAOYSA-N

>  <PERCENTSP3> (N049-0131)
45.5

$$$$

  -ISIS-  -- StrEd -- 

 27 30  0  0  0  0  0  0  0  0999 V2000
    1.9269    1.3207    0.0000 C   0  0  0  0  0  0  0  0  0  0  0  0
    2.8639    1.6013    0.0000 C   0  0  0  0  0  0  0  0  0  0  0  0
   -0.7040   -0.2196    0.0000 C   0  0  0  0  0  0  0  0  0  0  0  0
    1.9269    0.2780    0.0000 C   0  0  0  0  0  0  0  0  0  0  0  0
    0.1588    0.2885    0.0000 C   0  0  0  0  0  0  0  0  0  0  0  0
    1.0482   -0.2196    0.0000 C   0  0  0  0  0  0  0  0  0  0  0  0
    3.4620    0.8231    0.0000 C   0  0  0  0  0  0  0  0  0  0  0  0
   -0.7040   -1.2362    0.0000 C   0  0  2  0  0  0  0  0  0  0  0  0
    1.0482    1.8026    0.0000 C   0  0  0  0  0  0  0  0  0  0  0  0
    2.8903   -0.0132    0.0000 C   0  0  0  0  0  0  0  0  0  0  0  0
    0.1588    1.3207    0.0000 C   0  0  0  0  0  0  0  0  0  0  0  0
   -1.5828    0.2885    0.0000 C   0  0  0  0  0  0  0  0  0  0  0  0
    1.0482   -1.2362    0.0000 C   0  0  0  0  0  0  0  0  0  0  0  0
    3.1551    2.5541    0.0000 C   0  0  0  0  0  0  0  0  0  0  0  0
   -3.3084   -2.7342    0.0000 C   0  0  0  0  0  0  0  0  0  0  0  0
   -1.5828   -1.7442    0.0000 C   0  0  0  0  0  0  0  0  0  0  0  0
    0.1588   -1.7442    0.0000 C   0  0  0  0  0  0  0  0  0  0  0  0
   -3.3084   -1.7442    0.0000 O   0  0  0  0  0  0  0  0  0  0  0  0
   -2.4457   -1.2362    0.0000 C   0  0  0  0  0  0  0  0  0  0  0  0
   -4.1343   -3.2902    0.0000 O   0  0  0  0  0  0  0  0  0  0  0  0
    4.1343    2.7553    0.0000 O   0  0  0  0  0  0  0  0  0  0  0  0
   -2.4457   -0.2196    0.0000 C   0  0  0  0  0  0  0  0  0  0  0  0
    1.9269    2.2736    0.0000 C   0  0  0  0  0  0  0  0  0  0  0  0
   -0.7040    0.6592    0.0000 C   0  0  0  0  0  0  0  0  0  0  0  0
   -2.4827   -3.2902    0.0000 C   0  0  0  0  0  0  0  0  0  0  0  0
    2.4563    3.2902    0.0000 C   0  0  0  0  0  0  0  0  0  0  0  0
   -0.6670   -2.1995    0.0000 H   0  0  0  0  0  0  0  0  0  0  0  0
  2  1  1  0  0  0  0
  5  3  1  0  0  0  0
  4  1  1  0  0  0  0
  5 11  1  0  0  0  0
  6  4  1  0  0  0  0
  7  2  2  0  0  0  0
  8  3  1  0  0  0  0
  9  1  1  0  0  0  0
 10  4  1  0  0  0  0
 11  9  1  0  0  0  0
 12  3  1  0  0  0  0
 13  6  1  0  0  0  0
 14  2  1  0  0  0  0
 15 18  1  0  0  0  0
 16  8  1  0  0  0  0
 17 13  1  0  0  0  0
 19 18  1  0  0  0  0
 19 22  1  0  0  0  0
 20 15  2  0  0  0  0
 21 14  2  0  0  0  0
 22 12  1  0  0  0  0
  1 23  1  0  0  0  0
  3 24  1  0  0  0  0
 25 15  1  0  0  0  0
 26 14  1  0  0  0  0
  8 27  1  6  0  0  0
 10  7  1  0  0  0  0
  5  6  1  0  0  0  0
 17  8  1  0  0  0  0
 16 19  1  0  0  0  0
M  END
>  <IDNUMBER> (N050-0010)
N050-0010

>  <available> (N050-0010)
139

>  <H_acceptor> (N050-0010)
3

>  <H_donor> (N050-0010)
0

>  <B_rotN> (N050-0010)
3

>  <N_O> (N050-0010)
3

>  <logP> (N050-0010)
4.07

>  <logD> (N050-0010)
5.47

>  <logSw> (N050-0010)
-6.01

>  <PSA> (N050-0010)
43.37

>  <Chiral_centers> (N050-0010)
7

>  <Name> (N050-0010)
1-acetyl-9a,11a-dimethyl-3H,3aH,3bH,4H,5H,5aH,6H,7H,8H,9H,9aH,9bH,10H,11H,11aH-cyclopenta[a]phenanthren-7-yl acetate

>  <Smile> (N050-0010)
CC(C1C2(C)CCC3C4(C)C(CCC3C2CC=1)CC(OC(=O)C)CC4)=O

>  <Collection> (N050-0010)
DC

>  <InChI Key> (N050-0010)
YFMSIVMSEGIVCP-AREHCSORSA-N

>  <PERCENTSP3> (N050-0010)
82.6

$$$$

  -ISIS-  -- StrEd -- 

 17 18  0  0  0  0  0  0  0  0999 V2000
    2.1635   -0.0022    0.0000 N   0  3  0  0  0  0  0  0  0  0  0  0
    0.4221   -0.0022    0.0000 C   0  0  0  0  0  0  0  0  0  0  0  0
    1.2927   -0.5105    0.0000 C   0  0  0  0  0  0  0  0  0  0  0  0
    0.4221    0.9967    0.0000 C   0  0  0  0  0  0  0  0  0  0  0  0
   -0.4265   -0.5105    0.0000 C   0  0  0  0  0  0  0  0  0  0  0  0
   -1.2972   -0.0022    0.0000 C   0  0  0  0  0  0  0  0  0  0  0  0
   -0.4265    1.5049    0.0000 C   0  0  0  0  0  0  0  0  0  0  0  0
   -1.2972    0.9967    0.0000 C   0  0  0  0  0  0  0  0  0  0  0  0
    2.1635    0.9967    0.0000 C   0  0  0  0  0  0  0  0  0  0  0  0
    1.2927    1.5049    0.0000 C   0  0  0  0  0  0  0  0  0  0  0  0
    3.0342   -0.4442    0.0000 C   0  0  0  0  0  0  0  0  0  0  0  0
    2.8618    0.7006    0.0000 C   0  0  0  0  0  0  0  0  0  0  0  0
   -2.1856   -0.5105    0.0000 O   0  0  0  0  0  0  0  0  0  0  0  0
   -2.1635    1.5049    0.0000 O   0  0  0  0  0  0  0  0  0  0  0  0
    1.2927   -1.5049    0.0000 C   0  0  0  0  0  0  0  0  0  0  0  0
   -3.0342   -0.0022    0.0000 C   0  0  0  0  0  0  0  0  0  0  0  0
   -3.0342    1.0189    0.0000 C   0  0  0  0  0  0  0  0  0  0  0  0
  2  3  1  0  0  0  0
  3  1  1  0  0  0  0
  4 10  1  0  0  0  0
  5  2  1  0  0  0  0
  6  5  2  0  0  0  0
  7  4  1  0  0  0  0
  8  7  2  0  0  0  0
  9  1  1  0  0  0  0
 10  9  1  0  0  0  0
 11  1  1  0  0  0  0
 12  1  1  0  0  0  0
 13  6  1  0  0  0  0
 14  8  1  0  0  0  0
  3 15  1  0  0  0  0
 16 13  1  0  0  0  0
 17 14  1  0  0  0  0
  4  2  2  0  0  0  0
  6  8  1  0  0  0  0
M  CHG  1   1   1
M  END
>  <IDNUMBER> (N058-0410)
N058-0410

>  <available> (N058-0410)
247

>  <Saltdata> (N058-0410)
I-

>  <H_acceptor> (N058-0410)
2

>  <H_donor> (N058-0410)
0

>  <B_rotN> (N058-0410)
2

>  <N_O> (N058-0410)
3

>  <logP> (N058-0410)
0.97

>  <logD> (N058-0410)
-0.8

>  <logSw> (N058-0410)
-2.48

>  <PSA> (N058-0410)
18.46

>  <Chiral_centers> (N058-0410)
1

>  <Name> (N058-0410)
6,7-dimethoxy-1,2,2-trimethyl-1,2,3,4-tetrahydroisoquinolin-2-ium

>  <Smile> (N058-0410)
COc1c(cc2c(CC[N+](C)(C)C2C)c1)OC

>  <Collection> (N058-0410)
DC

>  <InChI Key> (N058-0410)
FCEQHORQQAMDBR-UHFFFAOYSA-N

>  <PERCENTSP3> (N058-0410)
57.1

$$$$

  -ISIS-  -- StrEd -- 

 22 25  0  0  0  0  0  0  0  0999 V2000
   -0.0553    0.9585    0.0000 N   0  0  0  0  0  0  0  0  0  0  0  0
    0.8212   -0.5443    0.0000 C   0  0  1  0  0  0  0  0  0  0  0  0
    0.8212    0.4527    0.0000 C   0  0  2  0  0  0  0  0  0  0  0  0
   -0.0553   -1.0308    0.0000 C   0  0  1  0  0  0  0  0  0  0  0  0
   -0.9368   -0.5443    0.0000 C   0  0  1  0  0  0  0  0  0  0  0  0
   -0.9368    0.4720    0.0000 C   0  0  0  0  0  0  0  0  0  0  0  0
   -0.0553    1.9990    0.0000 C   0  0  0  0  0  0  0  0  0  0  0  0
   -0.0553   -2.0470    0.0000 N   0  0  0  0  0  0  0  0  0  0  0  0
    0.7972    2.4807    0.0000 C   0  0  0  0  0  0  0  0  0  0  0  0
   -0.9128    2.5335    0.0000 O   0  0  0  0  0  0  0  0  0  0  0  0
    1.7220    1.9748    0.0000 C   0  0  0  0  0  0  0  0  0  0  0  0
    1.7220    0.9585    0.0000 C   0  0  0  0  0  0  0  0  0  0  0  0
    1.7027   -1.0500    0.0000 C   0  0  0  0  0  0  0  0  0  0  0  0
   -1.8182   -1.0308    0.0000 C   0  0  0  0  0  0  0  0  0  0  0  0
   -0.9368   -2.5335    0.0000 C   0  0  0  0  0  0  0  0  0  0  0  0
    0.7972   -2.5335    0.0000 C   0  0  0  0  0  0  0  0  0  0  0  0
    1.6787   -2.0470    0.0000 C   0  0  0  0  0  0  0  0  0  0  0  0
   -1.8182   -2.0277    0.0000 C   0  0  0  0  0  0  0  0  0  0  0  0
    1.8182    0.1926    0.0000 H   0  0  0  0  0  0  0  0  0  0  0  0
   -1.7460   -0.1253    0.0000 H   0  0  0  0  0  0  0  0  0  0  0  0
    1.7364   -0.1782    0.0000 H   0  0  0  0  0  0  0  0  0  0  0  0
   -0.0457   -0.1782    0.0000 H   0  0  0  0  0  0  0  0  0  0  0  0
  2  3  1  0  0  0  0
  3  1  1  0  0  0  0
  4  5  1  0  0  0  0
  5  6  1  0  0  0  0
  6  1  1  0  0  0  0
  7  1  1  0  0  0  0
  8  4  1  0  0  0  0
  9  7  1  0  0  0  0
 10  7  2  0  0  0  0
 11  9  2  0  0  0  0
 12  3  1  0  0  0  0
 13  2  1  0  0  0  0
 14  5  1  0  0  0  0
 15 18  1  0  0  0  0
 16  8  1  0  0  0  0
 17 13  1  0  0  0  0
 18 14  1  0  0  0  0
  3 19  1  6  0  0  0
  5 20  1  1  0  0  0
  2 21  1  1  0  0  0
  4 22  1  1  0  0  0
 11 12  1  0  0  0  0
  2  4  1  0  0  0  0
 17 16  1  0  0  0  0
 15  8  1  0  0  0  0
M  END
>  <IDNUMBER> (N059-0045)
N059-0045

>  <available> (N059-0045)
95

>  <Saltdata> (N059-0045)
HI

>  <H_acceptor> (N059-0045)
3

>  <H_donor> (N059-0045)
0

>  <B_rotN> (N059-0045)
2

>  <N_O> (N059-0045)
4

>  <logP> (N059-0045)
3.16

>  <logD> (N059-0045)
2.72

>  <logSw> (N059-0045)
-2.99

>  <PSA> (N059-0045)
23.55

>  <Chiral_centers> (N059-0045)
4

>  <Name> (N059-0045)
(7aR,13aS,13bR,13cR)-2,3,6,7,7a,8,13,13a,13b,13c-decahydro-1H,5H,10H-dipyrido[2,1-f:3,2,1-ij][1,6]naphthyridin-10-one

>  <Smile> (N059-0045)
C1CC2C3C(CCCN3C1)C1N(C(C=CC1)=O)C2

>  <Collection> (N059-0045)
DC

>  <InChI Key> (N059-0045)
AAGFPTSOPGCENQ-UKTARXLSSA-N

>  <PERCENTSP3> (N059-0045)
80

$$$$

  -ISIS-  -- StrEd -- 

 39 44  0  0  0  0  0  0  0  0999 V2000
    1.4304    2.0494    0.0000 N   0  0  0  0  0  0  0  0  0  0  0  0
   -1.4304   -2.2273    0.0000 C   0  0  2  0  0  0  0  0  0  0  0  0
   -0.5359   -1.7227    0.0000 C   0  0  2  0  0  0  0  0  0  0  0  0
    1.3042    0.2896    0.0000 C   0  0  1  0  0  0  0  0  0  0  0  0
    0.3583   -2.1870    0.0000 C   0  0  2  0  0  0  0  0  0  0  0  0
    0.7022   -0.5646    0.0000 C   0  0  1  0  0  0  0  0  0  0  0  0
    2.8634    1.0463    0.0000 C   0  0  1  0  0  0  0  0  0  0  0  0
    2.2846    0.2206    0.0000 C   0  0  2  0  0  0  0  0  0  0  0  0
    1.1265   -1.4877    0.0000 C   0  0  1  0  0  0  0  0  0  0  0  0
    2.4336    1.9520    0.0000 C   0  0  2  0  0  0  0  0  0  0  0  0
   -1.4304   -3.2362    0.0000 C   0  0  1  0  0  0  0  0  0  0  0  0
    0.8512    1.1951    0.0000 C   0  0  0  0  0  0  0  0  0  0  0  0
   -0.5359   -3.7177    0.0000 C   0  0  0  0  0  0  0  0  0  0  0  0
   -0.3183   -0.6449    0.0000 C   0  0  0  0  0  0  0  0  0  0  0  0
    0.3583   -3.1902    0.0000 C   0  0  0  0  0  0  0  0  0  0  0  0
    2.7374   -0.7309    0.0000 C   0  0  0  0  0  0  0  0  0  0  0  0
   -2.3246   -1.7054    0.0000 C   0  0  0  0  0  0  0  0  0  0  0  0
    2.1297   -1.5679    0.0000 C   0  0  0  0  0  0  0  0  0  0  0  0
    0.9889    2.9724    0.0000 C   0  0  0  0  0  0  0  0  0  0  0  0
    3.0011    2.7946    0.0000 C   0  0  0  0  0  0  0  0  0  0  0  0
   -2.2959   -3.7406    0.0000 C   0  0  0  0  0  0  0  0  0  0  0  0
   -0.5359   -4.7324    0.0000 O   0  0  0  0  0  0  0  0  0  0  0  0
    3.6030    1.9808    0.0000 O   0  0  0  0  0  0  0  0  0  0  0  0
   -1.4304   -1.3501    0.0000 C   0  0  0  0  0  0  0  0  0  0  0  0
   -3.2189   -2.2043    0.0000 C   0  0  0  0  0  0  0  0  0  0  0  0
    2.5710    3.7177    0.0000 C   0  0  0  0  0  0  0  0  0  0  0  0
   -3.2189   -3.2362    0.0000 C   0  0  2  0  0  0  0  0  0  0  0  0
    4.0732    0.8512    0.0000 C   0  0  0  0  0  0  0  0  0  0  0  0
    1.5794    3.8093    0.0000 C   0  0  2  0  0  0  0  0  0  0  0  0
   -4.0732   -3.7291    0.0000 O   0  0  0  0  0  0  0  0  0  0  0  0
    1.1665    4.7324    0.0000 C   0  0  0  0  0  0  0  0  0  0  0  0
    1.5794   -2.2273    0.0000 H   0  0  0  0  0  0  0  0  0  0  0  0
    0.2896    0.3984    0.0000 H   0  0  0  0  0  0  0  0  0  0  0  0
    1.7341   -0.4269    0.0000 H   0  0  0  0  0  0  0  0  0  0  0  0
   -1.4304   -4.1417    0.0000 H   0  0  0  0  0  0  0  0  0  0  0  0
    1.8830    1.0176    0.0000 H   0  0  0  0  0  0  0  0  0  0  0  0
    2.1066    2.7087    0.0000 H   0  0  0  0  0  0  0  0  0  0  0  0
   -0.5359   -2.5482    0.0000 H   0  0  0  0  0  0  0  0  0  0  0  0
    0.3583   -1.3787    0.0000 H   0  0  0  0  0  0  0  0  0  0  0  0
  2  3  1  0  0  0  0
  3 14  1  0  0  0  0
  4 12  1  0  0  0  0
  5  9  1  0  0  0  0
  6  4  1  0  0  0  0
  7 10  1  0  0  0  0
  8  4  1  0  0  0  0
  9  6  1  0  0  0  0
 10  1  1  0  0  0  0
 11  2  1  0  0  0  0
 12  1  1  0  0  0  0
 13 15  1  0  0  0  0
 14  6  1  0  0  0  0
 15  5  1  0  0  0  0
 16  8  1  0  0  0  0
 17  2  1  0  0  0  0
 18 16  1  0  0  0  0
 19  1  1  0  0  0  0
 20 10  1  0  0  0  0
 21 11  1  0  0  0  0
 22 13  2  0  0  0  0
  7 23  1  1  0  0  0
  2 24  1  1  0  0  0
 25 17  1  0  0  0  0
 26 29  1  0  0  0  0
 27 25  1  0  0  0  0
  7 28  1  6  0  0  0
 29 19  1  0  0  0  0
 27 30  1  1  0  0  0
 29 31  1  1  0  0  0
  9 32  1  6  0  0  0
  6 33  1  6  0  0  0
  4 34  1  1  0  0  0
 11 35  1  6  0  0  0
  8 36  1  1  0  0  0
 10 37  1  6  0  0  0
  3 38  1  6  0  0  0
  5 39  1  1  0  0  0
 26 20  1  0  0  0  0
  7  8  1  0  0  0  0
  9 18  1  0  0  0  0
  3  5  1  0  0  0  0
 11 13  1  0  0  0  0
 27 21  1  0  0  0  0
M  END
>  <IDNUMBER> (N060-0109)
N060-0109

>  <available> (N060-0109)
421

>  <Saltdata> (N060-0109)
HCl

>  <H_acceptor> (N060-0109)
4

>  <H_donor> (N060-0109)
2

>  <B_rotN> (N060-0109)
2

>  <N_O> (N060-0109)
4

>  <logP> (N060-0109)
4.37

>  <logD> (N060-0109)
4.37

>  <logSw> (N060-0109)
-4.78

>  <PSA> (N060-0109)
60.77

>  <Chiral_centers> (N060-0109)
12

>  <Name> (N060-0109)
10,20-DIHYDROXY-6,10,23-TRIMETHYL-4-AZAHEXACYCLO[12.11.0.0^(2,11).0^(4,9).0^(15,24).0^(18,23)]PENTACOSAN-17-ONE

>  <Smile> (N060-0109)
N12[C@]([C@]([C@]3([C@]([C@]4([C@]([C@]5([C@@]([C@@]6([C@@](C(C5)=O)(C[C@H](CC6)O)[H])C)(C4)[H])[H])(CC3)[H])[H])(C1)[H])[H])(O)C)(CC[C@@H](C2)C)[H]

>  <Collection> (N060-0109)
DC

>  <InChI Key> (N060-0109)
IQDIERHFZVCNRZ-LRCDAWNTSA-N

>  <PERCENTSP3> (N060-0109)
96.296

$$$$

  -ISIS-  -- StrEd -- 

 60 66  0  0  0  0  0  0  0  0999 V2000
    4.8399    2.2229    0.0000 C   0  0  0  0  0  0  0  0  0  0  0  0
    4.7955    5.1720    0.0000 C   0  0  0  0  0  0  0  0  0  0  0  0
   -1.9362   -5.9696    0.0000 C   0  0  0  0  0  0  0  0  0  0  0  0
    4.2576    1.4253    0.0000 C   0  0  0  0  0  0  0  0  0  0  0  0
    0.3497   -1.6493    0.0000 C   0  0  2  0  0  0  0  0  0  0  0  0
    5.3780    5.9696    0.0000 C   0  0  0  0  0  0  0  0  0  0  0  0
   -2.7068   -6.9375    0.0000 C   0  0  0  0  0  0  0  0  0  0  0  0
    4.2576    3.0835    0.0000 C   0  0  0  0  0  0  0  0  0  0  0  0
   -4.1499   -6.9375    0.0000 C   0  0  0  0  0  0  0  0  0  0  0  0
    4.7955    6.8120    0.0000 C   0  0  0  0  0  0  0  0  0  0  0  0
   -1.9092   -3.8811    0.0000 C   0  0  0  0  0  0  0  0  0  0  0  0
    0.3497   -2.5277    0.0000 C   0  0  0  0  0  0  0  0  0  0  0  0
   -0.4482   -3.0026    0.0000 C   0  0  1  0  0  0  0  0  0  0  0  0
    4.8223    3.6480    0.0000 O   0  0  0  0  0  0  0  0  0  0  0  0
    3.6390    5.1720    0.0000 O   0  0  0  0  0  0  0  0  0  0  0  0
   -2.7068   -4.9837    0.0000 O   0  0  0  0  0  0  0  0  0  0  0  0
    3.1013    1.4253    0.0000 O   0  0  0  0  0  0  0  0  0  0  0  0
    1.8732   -1.5865    0.0000 C   0  0  2  0  0  0  0  0  0  0  0  0
   -1.9538   -4.8493    0.0000 O   0  0  0  0  0  0  0  0  0  0  0  0
    1.1024   -1.1562    0.0000 C   0  0  0  0  0  0  0  0  0  0  0  0
    3.1013    3.0835    0.0000 C   0  0  0  0  0  0  0  0  0  0  0  0
   -4.9031   -5.9696    0.0000 C   0  0  0  0  0  0  0  0  0  0  0  0
    3.6390    6.8120    0.0000 C   0  0  0  0  0  0  0  0  0  0  0  0
    3.0116    6.0142    0.0000 C   0  0  0  0  0  0  0  0  0  0  0  0
   -4.1499   -4.9837    0.0000 C   0  0  0  0  0  0  0  0  0  0  0  0
    2.4739    2.2678    0.0000 C   0  0  0  0  0  0  0  0  0  0  0  0
    2.6440   -0.1882    0.0000 C   0  0  2  0  0  0  0  0  0  0  0  0
    4.2576    0.4392    0.0000 O   0  0  0  0  0  0  0  0  0  0  0  0
    1.1205   -2.9399    0.0000 C   0  0  0  0  0  0  0  0  0  0  0  0
    2.6710   -1.0848    0.0000 C   0  0  0  0  0  0  0  0  0  0  0  0
    1.0756   -0.2688    0.0000 C   0  0  0  0  0  0  0  0  0  0  0  0
    1.8913   -2.4649    0.0000 C   0  0  0  0  0  0  0  0  0  0  0  0
   -3.0118   -3.5227    0.0000 O   0  0  0  0  0  0  0  0  0  0  0  0
    2.8593   -2.0793    0.0000 C   0  0  0  0  0  0  0  0  0  0  0  0
    1.8286    0.2242    0.0000 C   0  0  0  0  0  0  0  0  0  0  0  0
   -2.7068   -7.5201    0.0000 O   0  0  0  0  0  0  0  0  0  0  0  0
    5.3780    6.9375    0.0000 O   0  0  0  0  0  0  0  0  0  0  0  0
    4.2397    2.1782    0.0000 O   0  0  0  0  0  0  0  0  0  0  0  0
    4.7506    5.8798    0.0000 O   0  0  0  0  0  0  0  0  0  0  0  0
   -4.1499   -6.3190    0.0000 O   0  0  0  0  0  0  0  0  0  0  0  0
    3.5493   -0.7259    0.0000 C   0  0  0  0  0  0  0  0  0  0  0  0
    3.6569    7.5201    0.0000 O   0  0  0  0  0  0  0  0  0  0  0  0
   -4.9031   -6.6419    0.0000 O   0  0  0  0  0  0  0  0  0  0  0  0
    3.1013    3.6480    0.0000 O   0  0  0  0  0  0  0  0  0  0  0  0
   -0.4749   -1.1743    0.0000 C   0  0  0  0  0  0  0  0  0  0  0  0
    0.3048   -0.7438    0.0000 C   0  0  0  0  0  0  0  0  0  0  0  0
   -1.2279   -2.5545    0.0000 C   0  0  0  0  0  0  0  0  0  0  0  0
    2.4739    1.2998    0.0000 C   0  0  0  0  0  0  0  0  0  0  0  0
   -0.4482   -3.9081    0.0000 C   0  0  0  0  0  0  0  0  0  0  0  0
    3.0116    5.0194    0.0000 C   0  0  0  0  0  0  0  0  0  0  0  0
   -4.1499   -4.3560    0.0000 C   0  0  0  0  0  0  0  0  0  0  0  0
   -5.3780   -4.4009    0.0000 O   0  0  0  0  0  0  0  0  0  0  0  0
    1.7031    0.8068    0.0000 O   0  0  0  0  0  0  0  0  0  0  0  0
    2.1959    4.5713    0.0000 O   0  0  0  0  0  0  0  0  0  0  0  0
   -1.2460   -1.6671    0.0000 C   0  0  0  0  0  0  0  0  0  0  0  0
   -2.7068   -6.2116    0.0000 H   0  0  0  0  0  0  0  0  0  0  0  0
   -1.9362   -6.6419    0.0000 H   0  0  0  0  0  0  0  0  0  0  0  0
   -4.1499   -5.4946    0.0000 H   0  0  0  0  0  0  0  0  0  0  0  0
   -4.9031   -5.2793    0.0000 H   0  0  0  0  0  0  0  0  0  0  0  0
   -4.1499   -7.5201    0.0000 H   0  0  0  0  0  0  0  0  0  0  0  0
  2 14  1  0  0  0  0
  3 19  1  0  0  0  0
  4  1  1  0  0  0  0
 20  5  1  0  0  0  0
  6  2  1  0  0  0  0
  7  3  1  0  0  0  0
  8  1  1  0  0  0  0
  9  7  1  0  0  0  0
 10  6  1  0  0  0  0
 13 11  1  6  0  0  0
 12  5  1  0  0  0  0
 13 12  1  0  0  0  0
  1 14  1  0  0  0  0
 15  2  1  0  0  0  0
 16  3  1  0  0  0  0
 17  4  1  0  0  0  0
 18 30  1  6  0  0  0
 19 11  1  0  0  0  0
 20 31  1  0  0  0  0
 21  8  1  0  0  0  0
 22 25  1  0  0  0  0
 23 24  1  0  0  0  0
 24 15  1  0  0  0  0
 25 16  1  0  0  0  0
 26 21  1  0  0  0  0
 27 28  1  0  0  0  0
  4 28  1  0  0  0  0
 29 32  1  0  0  0  0
 27 30  1  6  0  0  0
 31 35  1  0  0  0  0
 32 18  1  0  0  0  0
 33 11  2  0  0  0  0
 34 41  1  0  0  0  0
 35 27  1  0  0  0  0
 36  7  1  0  0  0  0
  6 37  1  0  0  0  0
  8 38  1  0  0  0  0
 10 39  1  0  0  0  0
  9 40  1  0  0  0  0
 41 27  1  0  0  0  0
 23 42  1  0  0  0  0
 43 22  1  0  0  0  0
 21 44  1  0  0  0  0
 45  5  1  0  0  0  0
  5 46  1  6  0  0  0
 47 55  1  0  0  0  0
 26 48  1  0  0  0  0
 13 49  1  1  0  0  0
 24 50  1  0  0  0  0
 51 25  1  0  0  0  0
 52 51  1  0  0  0  0
 53 48  1  0  0  0  0
 54 50  1  0  0  0  0
 55 45  1  0  0  0  0
  7 56  1  0  0  0  0
 57  3  1  0  0  0  0
 25 58  1  0  0  0  0
 22 59  1  0  0  0  0
 60  9  1  0  0  0  0
 17 26  1  0  0  0  0
 10 23  1  0  0  0  0
 18 34  1  0  0  0  0
 18 20  1  0  0  0  0
 29 12  1  0  0  0  0
 13 47  1  0  0  0  0
 22  9  1  0  0  0  0
M  END
>  <IDNUMBER> (N060-0154)
N060-0154

>  <available> (N060-0154)
374

>  <H_acceptor> (N060-0154)
18

>  <H_donor> (N060-0154)
11

>  <B_rotN> (N060-0154)
21

>  <N_O> (N060-0154)
18

>  <logP> (N060-0154)
-1.92

>  <logD> (N060-0154)
-5.46

>  <logSw> (N060-0154)
-3.13

>  <PSA> (N060-0154)
294.98

>  <Chiral_centers> (N060-0154)
21

>  <Name> (N060-0154)
3,4,5-TRIHYDROXY-6-(HYDROXYMETHYL)OXAN-2-YL 13-{[4,5-DIHYDROXY-6-(HYDROXYMETHYL)-3-{[3,4,5-TRIHYDROXY-6-(HYDROXYMETHYL)OXAN-2-YL]OXY}OXAN-2-YL]OXY}-5,9-DIMETHYLTETRACYCLO[11.2.1.0^(1,10).0^(4,9)]HEXAD
ECANE-5-CARBOXYLATE

>  <Smile> (N060-0154)
C1CC2(C3C4(CCC2C(C(OC2OC(C(C(C2O)O)O)CO)=O)(C)C1)CCC(OC1C(OC2C(C(C(C(O2)CO)O)O)O)C(C(C(O1)CO)O)O)(CC3)C4)C

>  <Collection> (N060-0154)
DC

>  <InChI Key> (N060-0154)
XOUZKNDFCQOEMV-VTVIGWAHSA-N

>  <PERCENTSP3> (N060-0154)
97.3

$$$$

  -ISIS-  -- StrEd -- 

 47 52  0  0  0  0  0  0  0  0999 V2000
    2.5030   -0.5517    0.0000 C   0  0  0  0  0  0  0  0  0  0  0  0
    2.5133   -2.9248    0.0000 C   0  0  0  0  0  0  0  0  0  0  0  0
    3.1089    0.2360    0.0000 C   0  0  0  0  0  0  0  0  0  0  0  0
   -0.1865    2.5829    0.0000 C   0  0  1  0  0  0  0  0  0  0  0  0
   -1.6168    2.5829    0.0000 C   0  0  2  0  0  0  0  0  0  0  0  0
    0.4978    3.8423    0.0000 C   0  0  1  0  0  0  0  0  0  0  0  0
    1.9016   -3.7228    0.0000 C   0  0  0  0  0  0  0  0  0  0  0  0
    1.3063   -0.5517    0.0000 C   0  0  0  0  0  0  0  0  0  0  0  0
    0.6737   -3.7228    0.0000 C   0  0  0  0  0  0  0  0  0  0  0  0
   -1.6168    1.7901    0.0000 C   0  0  1  0  0  0  0  0  0  0  0  0
    2.5030   -1.7436    0.0000 O   0  0  0  0  0  0  0  0  0  0  0  0
    1.9016   -2.0806    0.0000 O   0  0  0  0  0  0  0  0  0  0  0  0
    2.5030    1.0801    0.0000 O   0  0  0  0  0  0  0  0  0  0  0  0
   -0.8963    2.9926    0.0000 C   0  0  2  0  0  0  0  0  0  0  0  0
   -2.3109    1.3548    0.0000 C   0  0  2  0  0  0  0  0  0  0  0  0
    0.7101    0.2360    0.0000 C   0  0  0  0  0  0  0  0  0  0  0  0
    0.0881   -2.9248    0.0000 C   0  0  0  0  0  0  0  0  0  0  0  0
    1.5080    3.2309    0.0000 C   0  0  0  0  0  0  0  0  0  0  0  0
    1.3063    1.0801    0.0000 C   0  0  0  0  0  0  0  0  0  0  0  0
    0.6737   -2.0806    0.0000 C   0  0  0  0  0  0  0  0  0  0  0  0
    3.1089    4.4276    0.0000 O   0  0  0  0  0  0  0  0  0  0  0  0
    0.5130    3.0080    0.0000 C   0  0  0  0  0  0  0  0  0  0  0  0
   -1.9016    0.6556    0.0000 C   0  0  0  0  0  0  0  0  0  0  0  0
    0.6378    2.0494    0.0000 C   0  0  0  0  0  0  0  0  0  0  0  0
   -0.8963    1.3655    0.0000 C   0  0  0  0  0  0  0  0  0  0  0  0
   -0.8963    3.8268    0.0000 C   0  0  0  0  0  0  0  0  0  0  0  0
   -0.1865    1.7901    0.0000 C   0  0  0  0  0  0  0  0  0  0  0  0
   -0.2127    4.2256    0.0000 C   0  0  0  0  0  0  0  0  0  0  0  0
   -2.3266   -0.0906    0.0000 O   0  0  0  0  0  0  0  0  0  0  0  0
    2.2384    3.3551    0.0000 C   0  0  0  0  0  0  0  0  0  0  0  0
    1.9016   -4.4276    0.0000 O   0  0  0  0  0  0  0  0  0  0  0  0
    1.3063    0.2979    0.0000 O   0  0  0  0  0  0  0  0  0  0  0  0
    0.6737   -2.8732    0.0000 O   0  0  0  0  0  0  0  0  0  0  0  0
    0.7101   -0.6868    0.0000 O   0  0  0  0  0  0  0  0  0  0  0  0
    0.1245   -3.8937    0.0000 O   0  0  0  0  0  0  0  0  0  0  0  0
   -2.3109    2.9926    0.0000 C   0  0  0  0  0  0  0  0  0  0  0  0
   -1.0208    0.6556    0.0000 O   0  0  0  0  0  0  0  0  0  0  0  0
   -1.6168    3.4068    0.0000 C   0  0  0  0  0  0  0  0  0  0  0  0
   -3.0211    1.7901    0.0000 C   0  0  0  0  0  0  0  0  0  0  0  0
    1.3063    1.5884    0.0000 C   0  0  0  0  0  0  0  0  0  0  0  0
    0.6737   -1.5937    0.0000 C   0  0  0  0  0  0  0  0  0  0  0  0
   -3.1089    0.8318    0.0000 C   0  0  0  0  0  0  0  0  0  0  0  0
    0.0623   -1.2460    0.0000 O   0  0  0  0  0  0  0  0  0  0  0  0
    1.9896    1.8630    0.0000 O   0  0  0  0  0  0  0  0  0  0  0  0
   -3.0211    2.5829    0.0000 C   0  0  0  0  0  0  0  0  0  0  0  0
   -0.8963    2.2875    0.0000 H   0  0  0  0  0  0  0  0  0  0  0  0
   -1.6011    1.1889    0.0000 H   0  0  0  0  0  0  0  0  0  0  0  0
  2 11  1  0  0  0  0
  3  1  1  0  0  0  0
  4 22  1  6  0  0  0
  5 14  1  0  0  0  0
  6 21  1  6  0  0  0
  7  2  1  0  0  0  0
  8  1  1  0  0  0  0
  9  7  1  0  0  0  0
 10  5  1  0  0  0  0
  1 11  1  0  0  0  0
 12  2  1  0  0  0  0
 13  3  1  0  0  0  0
 14 26  1  0  0  0  0
 15 10  1  0  0  0  0
 16  8  1  0  0  0  0
 17 20  1  0  0  0  0
  6 18  1  1  0  0  0
 19 16  1  0  0  0  0
 20 12  1  0  0  0  0
  3 21  1  0  0  0  0
  6 22  1  6  0  0  0
 15 23  1  6  0  0  0
 18 24  1  0  0  0  0
 25 27  1  0  0  0  0
 26 28  1  0  0  0  0
 27  4  1  0  0  0  0
 28  6  1  0  0  0  0
 29 23  2  0  0  0  0
 30 18  2  0  0  0  0
  7 31  1  0  0  0  0
  8 32  1  0  0  0  0
  9 33  1  0  0  0  0
 16 34  1  0  0  0  0
 17 35  1  0  0  0  0
 36  5  1  0  0  0  0
 37 23  1  0  0  0  0
  5 38  1  6  0  0  0
 39 45  1  0  0  0  0
 19 40  1  0  0  0  0
 20 41  1  0  0  0  0
 15 42  1  1  0  0  0
 43 41  1  0  0  0  0
 44 40  1  0  0  0  0
 45 36  1  0  0  0  0
 14 46  1  1  0  0  0
 10 47  1  1  0  0  0
 19 13  1  0  0  0  0
  9 17  1  0  0  0  0
  4 24  1  1  0  0  0
 14  4  1  0  0  0  0
 10 25  1  0  0  0  0
 15 39  1  0  0  0  0
M  END
>  <IDNUMBER> (N062-0002)
N062-0002

>  <available> (N062-0002)
342

>  <H_acceptor> (N062-0002)
13

>  <H_donor> (N062-0002)
8

>  <B_rotN> (N062-0002)
15

>  <N_O> (N062-0002)
13

>  <logP> (N062-0002)
0.18

>  <logD> (N062-0002)
-1.43

>  <logSw> (N062-0002)
-2.22

>  <PSA> (N062-0002)
215.83

>  <Chiral_centers> (N062-0002)
16

>  <Name> (N062-0002)
13-{[4,5-DIHYDROXY-6-(HYDROXYMETHYL)-3-{[3,4,5-TRIHYDROXY-6-(HYDROXYMETHYL)OXAN-2-YL]OXY}OXAN-2-YL]OXY}-5,9-DIMETHYL-14-METHYLIDENETETRACYCLO[11.2.1.0^(1,10).0^(4,9)]HEXADECANE-5-CARBOXYLIC ACID

>  <Smile> (N062-0002)
C1CC2(C(CCC34CC(OC5C(OC6C(C(C(C(O6)CO)O)O)O)C(C(C(O5)CO)O)O)(C(=C)C4)CCC23)C(C)(C(=O)O)C1)C

>  <Collection> (N062-0002)
DC

>  <InChI Key> (N062-0002)
OMHUCGDTACNQEX-YLXWABARSA-N

>  <PERCENTSP3> (N062-0002)
90.6

$$$$

  -ISIS-  -- StrEd -- 

 25 28  0  0  0  0  0  0  0  0999 V2000
    0.2874    0.5054    0.0000 C   0  0  2  0  0  0  0  0  0  0  0  0
   -1.3581    0.5054    0.0000 C   0  0  2  0  0  0  0  0  0  0  0  0
   -1.3581   -0.4121    0.0000 C   0  0  1  0  0  0  0  0  0  0  0  0
   -0.5368    0.9842    0.0000 C   0  0  0  0  0  0  0  0  0  0  0  0
   -2.1627   -0.9175    0.0000 C   0  0  2  0  0  0  0  0  0  0  0  0
    1.0855    1.9650    0.0000 C   0  0  2  0  0  0  0  0  0  0  0  0
    2.2325    1.2469    0.0000 C   0  0  0  0  0  0  0  0  0  0  0  0
    1.0920    0.9907    0.0000 C   0  0  0  0  0  0  0  0  0  0  0  0
   -1.6837   -1.7219    0.0000 C   0  0  0  0  0  0  0  0  0  0  0  0
    1.2283   -0.1096    0.0000 C   0  0  0  0  0  0  0  0  0  0  0  0
   -0.5368   -0.9075    0.0000 C   0  0  0  0  0  0  0  0  0  0  0  0
   -0.5368    1.9417    0.0000 C   0  0  0  0  0  0  0  0  0  0  0  0
    0.2874   -0.4121    0.0000 C   0  0  0  0  0  0  0  0  0  0  0  0
    0.2545    2.3935    0.0000 C   0  0  0  0  0  0  0  0  0  0  0  0
    3.0802    1.3965    0.0000 O   0  0  0  0  0  0  0  0  0  0  0  0
   -2.1793   -2.5766    0.0000 O   0  0  0  0  0  0  0  0  0  0  0  0
   -2.1627    0.9842    0.0000 C   0  0  0  0  0  0  0  0  0  0  0  0
   -1.3581    1.4529    0.0000 C   0  0  0  0  0  0  0  0  0  0  0  0
   -0.6799   -1.7219    0.0000 O   0  0  0  0  0  0  0  0  0  0  0  0
   -2.9839   -0.4121    0.0000 C   0  0  0  0  0  0  0  0  0  0  0  0
   -3.0802   -1.5160    0.0000 C   0  0  0  0  0  0  0  0  0  0  0  0
    2.1230    2.5932    0.0000 C   0  0  0  0  0  0  0  0  0  0  0  0
   -2.9839    0.5054    0.0000 C   0  0  0  0  0  0  0  0  0  0  0  0
   -0.1778   -2.5932    0.0000 C   0  0  0  0  0  0  0  0  0  0  0  0
   -1.3482   -1.1006    0.0000 H   0  0  0  0  0  0  0  0  0  0  0  0
  4  2  1  0  0  0  0
  3 11  1  0  0  0  0
  4  1  1  0  0  0  0
  5  3  1  0  0  0  0
  6  8  1  0  0  0  0
  7 10  1  0  0  0  0
  8  1  1  0  0  0  0
  5  9  1  6  0  0  0
  1 10  1  6  0  0  0
 11 13  1  0  0  0  0
 12  4  1  0  0  0  0
 13  1  1  0  0  0  0
 14  6  1  0  0  0  0
 15  7  2  0  0  0  0
 16  9  2  0  0  0  0
 17  2  1  0  0  0  0
  2 18  1  6  0  0  0
 19  9  1  0  0  0  0
 20  5  1  0  0  0  0
  5 21  1  1  0  0  0
  6 22  1  1  0  0  0
 23 17  1  0  0  0  0
 24 19  1  0  0  0  0
  3 25  1  1  0  0  0
  6  7  1  6  0  0  0
  3  2  1  0  0  0  0
 14 12  1  0  0  0  0
 20 23  1  0  0  0  0
M  END
>  <IDNUMBER> (N062-0007)
N062-0007

>  <available> (N062-0007)
317

>  <H_acceptor> (N062-0007)
3

>  <H_donor> (N062-0007)
0

>  <B_rotN> (N062-0007)
2

>  <N_O> (N062-0007)
3

>  <logP> (N062-0007)
4.01

>  <logD> (N062-0007)
4.65

>  <logSw> (N062-0007)
-4.61

>  <PSA> (N062-0007)
43.37

>  <Chiral_centers> (N062-0007)
6

>  <Name> (N062-0007)
METHYL 5,9,13-TRIMETHYL-14-OXOTETRACYCLO[11.2.1.0^(1,10).0^(4,9)]HEXADECANE-5-CARBOXYLATE

>  <Smile> (N062-0007)
COC(C1(C2C(C)(CCC1)C1C3(CC2)CC(C(=O)C3)(C)CC1)C)=O

>  <Collection> (N062-0007)
DC

>  <InChI Key> (N062-0007)
WWTGKEKQZGKXDC-CZIORJBYSA-N

>  <PERCENTSP3> (N062-0007)
90.5

$$$$

  -ISIS-  -- StrEd -- 

 28 31  0  0  0  0  0  0  0  0999 V2000
   -0.8023    0.4966    0.0000 C   0  0  2  0  0  0  0  0  0  0  0  0
   -2.4524    0.4966    0.0000 C   0  0  2  0  0  0  0  0  0  0  0  0
   -2.4524   -0.4233    0.0000 C   0  0  1  0  0  0  0  0  0  0  0  0
   -1.6273    0.9777    0.0000 C   0  0  0  0  0  0  0  0  0  0  0  0
   -3.2526   -0.9286    0.0000 C   0  0  2  0  0  0  0  0  0  0  0  0
   -0.0017    1.9642    0.0000 C   0  0  2  0  0  0  0  0  0  0  0  0
    1.1462    1.2375    0.0000 C   0  0  0  0  0  0  0  0  0  0  0  0
    1.9958    1.3885    0.0000 N   0  0  0  0  0  0  0  0  0  0  0  0
   -0.0017    0.9844    0.0000 C   0  0  0  0  0  0  0  0  0  0  0  0
   -2.7822   -1.7361    0.0000 C   0  0  0  0  0  0  0  0  0  0  0  0
    0.1424   -0.1175    0.0000 C   0  0  0  0  0  0  0  0  0  0  0  0
    3.5298    0.6056    0.0000 C   0  0  0  0  0  0  0  0  0  0  0  0
   -1.6273   -0.9181    0.0000 C   0  0  0  0  0  0  0  0  0  0  0  0
    2.5434    0.5879    0.0000 N   0  0  0  0  0  0  0  0  0  0  0  0
   -1.6273    1.9360    0.0000 C   0  0  0  0  0  0  0  0  0  0  0  0
   -0.8023   -0.4233    0.0000 C   0  0  0  0  0  0  0  0  0  0  0  0
   -0.8337    2.3924    0.0000 C   0  0  0  0  0  0  0  0  0  0  0  0
    4.1795   -0.2193    0.0000 O   0  0  0  0  0  0  0  0  0  0  0  0
   -3.2705   -2.5960    0.0000 O   0  0  0  0  0  0  0  0  0  0  0  0
    3.8740    1.4833    0.0000 N   0  0  0  0  0  0  0  0  0  0  0  0
   -3.2526    0.9777    0.0000 C   0  0  0  0  0  0  0  0  0  0  0  0
   -1.7711   -1.7361    0.0000 O   0  0  0  0  0  0  0  0  0  0  0  0
   -2.4524    1.4481    0.0000 C   0  0  0  0  0  0  0  0  0  0  0  0
   -4.0776   -0.4233    0.0000 C   0  0  0  0  0  0  0  0  0  0  0  0
   -4.1795   -1.5255    0.0000 C   0  0  0  0  0  0  0  0  0  0  0  0
    1.0374    2.5960    0.0000 C   0  0  0  0  0  0  0  0  0  0  0  0
   -4.0776    0.4966    0.0000 C   0  0  0  0  0  0  0  0  0  0  0  0
   -2.4451   -1.1114    0.0000 H   0  0  0  0  0  0  0  0  0  0  0  0
  4  2  1  0  0  0  0
  3 13  1  0  0  0  0
  4  1  1  0  0  0  0
  5  3  1  0  0  0  0
  6  9  1  0  0  0  0
  7 11  1  0  0  0  0
  8  7  2  0  0  0  0
  9  1  1  0  0  0  0
  5 10  1  6  0  0  0
  1 11  1  6  0  0  0
 12 14  1  0  0  0  0
 13 16  1  0  0  0  0
 14  8  1  0  0  0  0
 15  4  1  0  0  0  0
 16  1  1  0  0  0  0
 17  6  1  0  0  0  0
 18 12  2  0  0  0  0
 19 10  2  0  0  0  0
 20 12  1  0  0  0  0
 21  2  1  0  0  0  0
 22 10  1  0  0  0  0
  2 23  1  6  0  0  0
 24  5  1  0  0  0  0
  5 25  1  1  0  0  0
  6 26  1  1  0  0  0
 27 21  1  0  0  0  0
  3 28  1  1  0  0  0
  6  7  1  6  0  0  0
  3  2  1  0  0  0  0
 17 15  1  0  0  0  0
 24 27  1  0  0  0  0
M  END
>  <IDNUMBER> (N062-0008)
N062-0008

>  <available> (N062-0008)
4

>  <H_acceptor> (N062-0008)
4

>  <H_donor> (N062-0008)
4

>  <B_rotN> (N062-0008)
4

>  <N_O> (N062-0008)
6

>  <logP> (N062-0008)
2.98

>  <logD> (N062-0008)
1.11

>  <logSw> (N062-0008)
-0.3

>  <PSA> (N062-0008)
104.78

>  <Chiral_centers> (N062-0008)
6

>  <Name> (N062-0008)
(14E)-14-[(CARBAMOYLAMINO)IMINO]-5,9,13-TRIMETHYLTETRACYCLO[11.2.1.0^(1,10).0^(4,9)]HEXADECANE-5-CARBOXYLIC ACID

>  <Smile> (N062-0008)
C1CC2(C(CCC34CC(C(=NNC(=O)N)C3)(C)CCC24)C(C)(C(=O)O)C1)C

>  <Collection> (N062-0008)
DC

>  <InChI Key> (N062-0008)
OXHIJBISUPBBOF-LVGOZADSSA-N

>  <PERCENTSP3> (N062-0008)
85.7

$$$$

  -ISIS-  -- StrEd -- 

 36 40  0  0  0  0  0  0  0  0999 V2000
    0.5182    0.1875    0.0000 C   0  0  0  0  0  0  0  0  0  0  0  0
   -0.3285   -1.3533    0.0000 C   0  0  1  0  0  0  0  0  0  0  0  0
    0.5182   -0.8305    0.0000 C   0  0  2  0  0  0  0  0  0  0  0  0
   -2.0588   -1.3533    0.0000 C   0  0  2  0  0  0  0  0  0  0  0  0
   -1.1937   -0.8305    0.0000 C   0  0  0  0  0  0  0  0  0  0  0  0
   -0.3701    0.6545    0.0000 C   0  0  0  0  0  0  0  0  0  0  0  0
   -1.1937    0.1688    0.0000 C   0  0  0  0  0  0  0  0  0  0  0  0
   -2.0588   -2.2971    0.0000 C   0  0  0  0  0  0  0  0  0  0  0  0
    1.3741    0.6778    0.0000 C   0  0  2  0  0  0  0  0  0  0  0  0
   -2.9240   -2.8293    0.0000 C   0  0  2  0  0  0  0  0  0  0  0  0
    2.2255    2.2000    0.0000 C   0  0  1  0  0  0  0  0  0  0  0  0
    1.3602    1.6865    0.0000 C   0  0  0  0  0  0  0  0  0  0  0  0
    2.2393    0.1875    0.0000 C   0  0  1  0  0  0  0  0  0  0  0  0
   -0.3285   -2.2971    0.0000 C   0  0  0  0  0  0  0  0  0  0  0  0
    3.0814    2.6858    0.0000 C   0  0  0  0  0  0  0  0  0  0  0  0
   -2.9240   -0.8305    0.0000 C   0  0  0  0  0  0  0  0  0  0  0  0
    1.3741   -1.2979    0.0000 C   0  0  0  0  0  0  0  0  0  0  0  0
   -3.7801   -2.2971    0.0000 C   0  0  0  0  0  0  0  0  0  0  0  0
   -1.1937   -2.8200    0.0000 C   0  0  0  0  0  0  0  0  0  0  0  0
   -2.0358    0.7009    0.0000 O   0  0  0  0  0  0  0  0  0  0  0  0
    2.2393   -0.8119    0.0000 C   0  0  0  0  0  0  0  0  0  0  0  0
    3.0953    1.7094    0.0000 C   0  0  0  0  0  0  0  0  0  0  0  0
   -3.7801   -1.3533    0.0000 C   0  0  0  0  0  0  0  0  0  0  0  0
    3.0953    0.7009    0.0000 C   0  0  0  0  0  0  0  0  0  0  0  0
    3.0583    3.6852    0.0000 O   0  0  0  0  0  0  0  0  0  0  0  0
   -4.8026   -2.8293    0.0000 O   0  0  0  0  0  0  0  0  0  0  0  0
   -0.3378   -0.4558    0.0000 C   0  0  0  0  0  0  0  0  0  0  0  0
   -2.0588   -0.3447    0.0000 C   0  0  0  0  0  0  0  0  0  0  0  0
    0.5182   -1.7975    0.0000 C   0  0  0  0  0  0  0  0  0  0  0  0
    3.9698    2.2323    0.0000 O   0  0  0  0  0  0  0  0  0  0  0  0
   -3.8818   -3.4632    0.0000 C   0  0  0  0  0  0  0  0  0  0  0  0
   -2.4011   -3.6852    0.0000 C   0  0  0  0  0  0  0  0  0  0  0  0
    1.3510    2.6765    0.0000 C   0  0  0  0  0  0  0  0  0  0  0  0
    3.1368   -0.3539    0.0000 C   0  0  0  0  0  0  0  0  0  0  0  0
    4.8026    2.7643    0.0000 C   0  0  0  0  0  0  0  0  0  0  0  0
    0.5599    1.1868    0.0000 H   0  0  0  0  0  0  0  0  0  0  0  0
  2  3  1  0  0  0  0
  3  1  1  0  0  0  0
  5  4  1  0  0  0  0
  5  7  1  0  0  0  0
  6  1  2  0  0  0  0
  7  6  1  0  0  0  0
  8  4  1  0  0  0  0
  9  1  1  0  0  0  0
 10  8  1  0  0  0  0
 11 12  1  0  0  0  0
 12  9  1  0  0  0  0
 13  9  1  0  0  0  0
 14  2  1  0  0  0  0
 11 15  1  1  0  0  0
 16  4  1  0  0  0  0
 17  3  1  0  0  0  0
 18 23  1  0  0  0  0
 19 14  1  0  0  0  0
 20  7  2  0  0  0  0
 21 13  1  0  0  0  0
 22 24  1  0  0  0  0
 23 16  1  0  0  0  0
 24 13  1  0  0  0  0
 25 15  2  0  0  0  0
 26 18  2  0  0  0  0
  2 27  1  1  0  0  0
  4 28  1  1  0  0  0
  3 29  1  6  0  0  0
 30 15  1  0  0  0  0
 10 31  1  1  0  0  0
 10 32  1  6  0  0  0
 11 33  1  6  0  0  0
 13 34  1  1  0  0  0
 35 30  1  0  0  0  0
  9 36  1  1  0  0  0
 17 21  1  0  0  0  0
  2  5  1  0  0  0  0
 22 11  1  0  0  0  0
 19  8  1  0  0  0  0
 18 10  1  0  0  0  0
M  END
>  <IDNUMBER> (N064-0037)
N064-0037

>  <available> (N064-0037)
115

>  <H_acceptor> (N064-0037)
4

>  <H_donor> (N064-0037)
0

>  <B_rotN> (N064-0037)
2

>  <N_O> (N064-0037)
4

>  <logP> (N064-0037)
5.6

>  <logD> (N064-0037)
6.81

>  <logSw> (N064-0037)
-9.16

>  <PSA> (N064-0037)
60.44

>  <Chiral_centers> (N064-0037)
8

>  <Name> (N064-0037)
methyl 2,4a,6a,6b,9,9,12a-heptamethyl-10,13-dioxo-1,2,3,4,4a,5,6,6a,6b,7,8,8a,9,10,11,12,12a,12b,13,14b-icosahydropicene-2-carboxylate

>  <Smile> (N064-0037)
COC(C1(CC2C3=CC(C4C(C)(CCC5C4(C)CCC(C5(C)C)=O)C3(C)CCC2(C)CC1)=O)C)=O

>  <Collection> (N064-0037)
DC

>  <InChI Key> (N064-0037)
LHVOTBCQBLBMAB-ZRLKTFCTSA-N

>  <PERCENTSP3> (N064-0037)
83.9

$$$$

  -ISIS-  -- StrEd -- 

 42 47  0  0  0  0  0  0  0  0999 V2000
   -1.3242   -1.1931    0.0000 C   0  0  2  0  0  0  0  0  0  0  0  0
    1.2567   -0.6921    0.0000 C   0  0  1  0  0  0  0  0  0  0  0  0
    0.4115   -1.1931    0.0000 C   0  0  1  0  0  0  0  0  0  0  0  0
    2.9997    0.3477    0.0000 C   0  0  0  0  0  0  0  0  0  0  0  0
    2.1170    0.8564    0.0000 C   0  0  0  0  0  0  0  0  0  0  0  0
    1.2567    0.3477    0.0000 C   0  0  0  0  0  0  0  0  0  0  0  0
   -3.0521   -1.1931    0.0000 C   0  0  0  0  0  0  0  0  0  0  0  0
   -0.4488   -0.6921    0.0000 C   0  0  0  0  0  0  0  0  0  0  0  0
   -1.3242   -2.1431    0.0000 C   0  0  0  0  0  0  0  0  0  0  0  0
   -2.1918   -2.6818    0.0000 C   0  0  1  0  0  0  0  0  0  0  0  0
   -3.0521   -2.1431    0.0000 C   0  0  0  0  0  0  0  0  0  0  0  0
   -2.1918   -0.6921    0.0000 C   0  0  0  0  0  0  0  0  0  0  0  0
    2.3563    1.8589    0.0000 C   0  0  1  0  0  0  0  0  0  0  0  0
    3.8973   -0.1907    0.0000 C   0  0  0  0  0  0  0  0  0  0  0  0
   -3.9122   -0.7443    0.0000 C   0  0  0  0  0  0  0  0  0  0  0  0
    2.1170   -1.1409    0.0000 C   0  0  0  0  0  0  0  0  0  0  0  0
    0.4115   -2.1431    0.0000 C   0  0  0  0  0  0  0  0  0  0  0  0
    2.9997   -0.6545    0.0000 C   0  0  0  0  0  0  0  0  0  0  0  0
    3.7554    1.0360    0.0000 C   0  0  0  0  0  0  0  0  0  0  0  0
    0.3815    0.8341    0.0000 C   0  0  0  0  0  0  0  0  0  0  0  0
   -0.4488   -2.6443    0.0000 C   0  0  0  0  0  0  0  0  0  0  0  0
   -0.4488    0.3179    0.0000 C   0  0  0  0  0  0  0  0  0  0  0  0
    3.3438    1.9487    0.0000 C   0  0  0  0  0  0  0  0  0  0  0  0
    1.7056    2.5918    0.0000 C   0  0  0  0  0  0  0  0  0  0  0  0
   -4.0769   -2.6818    0.0000 O   0  0  0  0  0  0  0  0  0  0  0  0
    3.9122   -1.1782    0.0000 O   0  0  0  0  0  0  0  0  0  0  0  0
   -3.9122    0.2431    0.0000 C   0  0  0  0  0  0  0  0  0  0  0  0
    2.0496    3.5272    0.0000 C   0  0  0  0  0  0  0  0  0  0  0  0
   -1.3242   -0.1907    0.0000 C   0  0  0  0  0  0  0  0  0  0  0  0
    1.2567   -1.6420    0.0000 C   0  0  0  0  0  0  0  0  0  0  0  0
    0.4115   -0.2954    0.0000 C   0  0  0  0  0  0  0  0  0  0  0  0
    4.7576    0.2954    0.0000 O   0  0  0  0  0  0  0  0  0  0  0  0
   -3.8749    2.2329    0.0000 C   0  0  0  0  0  0  0  0  0  0  0  0
   -1.6681   -3.5272    0.0000 C   0  0  0  0  0  0  0  0  0  0  0  0
   -3.1419   -3.2952    0.0000 C   0  0  0  0  0  0  0  0  0  0  0  0
   -3.8749    3.2802    0.0000 Cl  0  0  0  0  0  0  0  0  0  0  0  0
   -3.0521    0.7441    0.0000 C   0  0  0  0  0  0  0  0  0  0  0  0
   -4.7576    0.7292    0.0000 C   0  0  0  0  0  0  0  0  0  0  0  0
   -4.7576    1.7316    0.0000 C   0  0  0  0  0  0  0  0  0  0  0  0
   -3.0521    1.7542    0.0000 C   0  0  0  0  0  0  0  0  0  0  0  0
    0.7405    2.4348    0.0000 C   0  0  0  0  0  0  0  0  0  0  0  0
    4.7576    1.2828    0.0000 C   0  0  0  0  0  0  0  0  0  0  0  0
  2  3  1  0  0  0  0
  8  3  1  0  0  0  0
  5  4  1  0  0  0  0
  6  5  1  0  0  0  0
  6 20  1  0  0  0  0
  7 12  1  0  0  0  0
  8  1  1  0  0  0  0
  9  1  1  0  0  0  0
 10  9  1  0  0  0  0
 11  7  1  0  0  0  0
 12  1  1  0  0  0  0
 13  5  1  0  0  0  0
  4 14  1  0  0  0  0
 15  7  2  0  0  0  0
 16  2  1  0  0  0  0
 17 21  1  0  0  0  0
 18 16  1  0  0  0  0
 19  4  1  0  0  0  0
 20 22  1  0  0  0  0
 21  9  1  0  0  0  0
 22  8  1  0  0  0  0
 23 13  1  0  0  0  0
 13 24  1  6  0  0  0
 25 11  2  0  0  0  0
 26 14  2  0  0  0  0
 27 15  1  0  0  0  0
 28 24  2  0  0  0  0
  1 29  1  1  0  0  0
  2 30  1  6  0  0  0
  3 31  1  1  0  0  0
 32 14  1  0  0  0  0
 33 39  1  0  0  0  0
 10 34  1  6  0  0  0
 10 35  1  1  0  0  0
 36 33  1  0  0  0  0
 37 27  2  0  0  0  0
 38 27  1  0  0  0  0
 39 38  2  0  0  0  0
 40 37  1  0  0  0  0
 41 24  1  0  0  0  0
 42 32  1  0  0  0  0
 11 10  1  0  0  0  0
  3 17  1  0  0  0  0
  2  6  1  0  0  0  0
 18  4  1  0  0  0  0
 33 40  2  0  0  0  0
 23 19  1  0  0  0  0
M  END
>  <IDNUMBER> (N064-0046)
N064-0046

>  <available> (N064-0046)
118

>  <H_acceptor> (N064-0046)
4

>  <H_donor> (N064-0046)
0

>  <B_rotN> (N064-0046)
4

>  <N_O> (N064-0046)
3

>  <logP> (N064-0046)
9.31

>  <logD> (N064-0046)
10.34

>  <logSw> (N064-0046)
-8.93

>  <PSA> (N064-0046)
43.37

>  <Chiral_centers> (N064-0046)
9

>  <Name> (N064-0046)
methyl (10E)-10-[(4-chlorophenyl)methylidene]-5a,5b,8,8,11a-pentamethyl-9-oxo-1-(prop-1-en-2-yl)-icosahydro-1H-cyclopenta[a]chrysene-3a-carboxylate

>  <Smile> (N064-0046)
COC(C12C(C3C(C4(CCC5C(CC(C(C5(C)C)=O)=Cc5ccc(Cl)cc5)(C4CC3)C)C)(C)CC2)C(C(=C)C)CC1)=O

>  <Collection> (N064-0046)
DC

>  <InChI Key> (N064-0046)
PBFZNBCIOYZGPX-PDNBFOJESA-N

>  <PERCENTSP3> (N064-0046)
68.4

$$$$

  -ISIS-  -- StrEd -- 

 44 49  0  0  0  0  0  0  0  0999 V2000
   -0.9133   -1.3100    0.0000 C   0  0  2  0  0  0  0  0  0  0  0  0
    1.6693   -0.8085    0.0000 C   0  0  1  0  0  0  0  0  0  0  0  0
    0.8236   -1.3100    0.0000 C   0  0  1  0  0  0  0  0  0  0  0  0
    3.4134    0.2321    0.0000 C   0  0  0  0  0  0  0  0  0  0  0  0
    2.5302    0.7410    0.0000 C   0  0  0  0  0  0  0  0  0  0  0  0
    1.6693    0.2321    0.0000 C   0  0  0  0  0  0  0  0  0  0  0  0
   -2.6426   -1.3100    0.0000 C   0  0  0  0  0  0  0  0  0  0  0  0
   -0.0373   -0.8085    0.0000 C   0  0  0  0  0  0  0  0  0  0  0  0
   -0.9133   -2.2606    0.0000 C   0  0  0  0  0  0  0  0  0  0  0  0
   -1.7816   -2.7997    0.0000 C   0  0  1  0  0  0  0  0  0  0  0  0
   -2.6426   -2.2606    0.0000 C   0  0  0  0  0  0  0  0  0  0  0  0
   -1.7816   -0.8085    0.0000 C   0  0  0  0  0  0  0  0  0  0  0  0
    2.7698    1.7441    0.0000 C   0  0  1  0  0  0  0  0  0  0  0  0
    4.3115   -0.3070    0.0000 C   0  0  0  0  0  0  0  0  0  0  0  0
   -3.5031   -0.8608    0.0000 C   0  0  0  0  0  0  0  0  0  0  0  0
    2.5302   -1.2576    0.0000 C   0  0  0  0  0  0  0  0  0  0  0  0
    0.8236   -2.2606    0.0000 C   0  0  0  0  0  0  0  0  0  0  0  0
    3.4134   -0.7709    0.0000 C   0  0  0  0  0  0  0  0  0  0  0  0
    4.1696    0.9207    0.0000 C   0  0  0  0  0  0  0  0  0  0  0  0
    0.7935    0.7187    0.0000 C   0  0  0  0  0  0  0  0  0  0  0  0
   -0.0373   -2.7622    0.0000 C   0  0  0  0  0  0  0  0  0  0  0  0
   -0.0373    0.2022    0.0000 C   0  0  0  0  0  0  0  0  0  0  0  0
    3.7577    1.8342    0.0000 C   0  0  0  0  0  0  0  0  0  0  0  0
    2.1185    2.4777    0.0000 C   0  0  0  0  0  0  0  0  0  0  0  0
   -3.6679   -2.7997    0.0000 O   0  0  0  0  0  0  0  0  0  0  0  0
    4.3267   -1.2949    0.0000 O   0  0  0  0  0  0  0  0  0  0  0  0
   -3.5031    0.1274    0.0000 C   0  0  0  0  0  0  0  0  0  0  0  0
    2.4628    3.4134    0.0000 C   0  0  0  0  0  0  0  0  0  0  0  0
   -0.9133   -0.3070    0.0000 C   0  0  0  0  0  0  0  0  0  0  0  0
    1.6693   -1.7590    0.0000 C   0  0  0  0  0  0  0  0  0  0  0  0
    0.8236   -0.4115    0.0000 C   0  0  0  0  0  0  0  0  0  0  0  0
    5.1726    0.1796    0.0000 O   0  0  0  0  0  0  0  0  0  0  0  0
   -1.2576   -3.6456    0.0000 C   0  0  0  0  0  0  0  0  0  0  0  0
   -2.7323   -3.4134    0.0000 C   0  0  0  0  0  0  0  0  0  0  0  0
   -3.4658    2.1185    0.0000 C   0  0  0  0  0  0  0  0  0  0  0  0
   -2.6426    0.6286    0.0000 C   0  0  0  0  0  0  0  0  0  0  0  0
   -4.3490    0.6138    0.0000 C   0  0  0  0  0  0  0  0  0  0  0  0
   -4.3490    1.6168    0.0000 C   0  0  0  0  0  0  0  0  0  0  0  0
   -2.6426    1.6392    0.0000 C   0  0  0  0  0  0  0  0  0  0  0  0
   -3.4658    3.1664    0.0000 O   0  0  0  0  0  0  0  0  0  0  0  0
    1.1528    2.3206    0.0000 C   0  0  0  0  0  0  0  0  0  0  0  0
   -4.3267    3.6456    0.0000 C   0  0  0  0  0  0  0  0  0  0  0  0
    5.1726    1.1677    0.0000 C   0  0  0  0  0  0  0  0  0  0  0  0
   -5.1726    3.1440    0.0000 C   0  0  0  0  0  0  0  0  0  0  0  0
  2  3  1  0  0  0  0
  8  3  1  0  0  0  0
  5  4  1  0  0  0  0
  6  5  1  0  0  0  0
  6 20  1  0  0  0  0
  7 12  1  0  0  0  0
  8  1  1  0  0  0  0
  9  1  1  0  0  0  0
 10  9  1  0  0  0  0
 11  7  1  0  0  0  0
 12  1  1  0  0  0  0
 13  5  1  0  0  0  0
  4 14  1  0  0  0  0
 15  7  2  0  0  0  0
 16  2  1  0  0  0  0
 17 21  1  0  0  0  0
 18 16  1  0  0  0  0
 19  4  1  0  0  0  0
 20 22  1  0  0  0  0
 21  9  1  0  0  0  0
 22  8  1  0  0  0  0
 23 13  1  0  0  0  0
 13 24  1  6  0  0  0
 25 11  2  0  0  0  0
 26 14  2  0  0  0  0
 27 15  1  0  0  0  0
 28 24  2  0  0  0  0
  1 29  1  1  0  0  0
  2 30  1  6  0  0  0
  3 31  1  1  0  0  0
 32 14  1  0  0  0  0
 10 33  1  6  0  0  0
 10 34  1  1  0  0  0
 35 38  1  0  0  0  0
 36 27  2  0  0  0  0
 37 27  1  0  0  0  0
 38 37  2  0  0  0  0
 39 36  1  0  0  0  0
 40 35  1  0  0  0  0
 41 24  1  0  0  0  0
 42 40  1  0  0  0  0
 43 32  1  0  0  0  0
 44 42  1  0  0  0  0
 11 10  1  0  0  0  0
  3 17  1  0  0  0  0
  2  6  1  0  0  0  0
 18  4  1  0  0  0  0
 35 39  2  0  0  0  0
 23 19  1  0  0  0  0
M  END
>  <IDNUMBER> (N064-0050)
N064-0050

>  <available> (N064-0050)
159

>  <H_acceptor> (N064-0050)
4

>  <H_donor> (N064-0050)
0

>  <B_rotN> (N064-0050)
6

>  <N_O> (N064-0050)
4

>  <logP> (N064-0050)
8.98

>  <logD> (N064-0050)
10.81

>  <logSw> (N064-0050)
-9.01

>  <PSA> (N064-0050)
52.6

>  <Chiral_centers> (N064-0050)
9

>  <Name> (N064-0050)
methyl (10E)-10-[(4-ethoxyphenyl)methylidene]-5a,5b,8,8,11a-pentamethyl-9-oxo-1-(prop-1-en-2-yl)-icosahydro-1H-cyclopenta[a]chrysene-3a-carboxylate

>  <Smile> (N064-0050)
CCOc1ccc(C=C2CC3(C(CCC4(C5(C(C6C(C(=O)OC)(CC5)CCC6C(=C)C)CCC43)C)C)C(C2=O)(C)C)C)cc1

>  <Collection> (N064-0050)
DC

>  <InChI Key> (N064-0050)
LIZYQIOAPWRBEB-JWOABNTPSA-N

>  <PERCENTSP3> (N064-0050)
70

$$$$

  -ISIS-  -- StrEd -- 

 22 24  0  0  0  0  0  0  0  0999 V2000
   -0.3689   -0.4260    0.0000 C   0  0  0  0  0  0  0  0  0  0  0  0
   -0.3689    0.5346    0.0000 C   0  0  0  0  0  0  0  0  0  0  0  0
    0.4546    1.0264    0.0000 C   0  0  0  0  0  0  0  0  0  0  0  0
   -1.1923   -0.8949    0.0000 C   0  0  0  0  0  0  0  0  0  0  0  0
   -1.2208    1.0264    0.0000 C   0  0  0  0  0  0  0  0  0  0  0  0
   -2.0730    0.5346    0.0000 O   0  0  0  0  0  0  0  0  0  0  0  0
   -2.0444   -0.4260    0.0000 C   0  0  0  0  0  0  0  0  0  0  0  0
    1.3010    0.5346    0.0000 O   0  0  0  0  0  0  0  0  0  0  0  0
    2.1530    1.0264    0.0000 C   0  0  0  0  0  0  0  0  0  0  0  0
    0.4546    2.0158    0.0000 C   0  0  0  0  0  0  0  0  0  0  0  0
    1.3010    2.4847    0.0000 C   0  0  0  0  0  0  0  0  0  0  0  0
    2.1530    2.0158    0.0000 C   0  0  0  0  0  0  0  0  0  0  0  0
    0.4776   -0.9235    0.0000 C   0  0  0  0  0  0  0  0  0  0  0  0
   -1.1923   -1.8842    0.0000 O   0  0  0  0  0  0  0  0  0  0  0  0
   -1.2208    2.0158    0.0000 C   0  0  0  0  0  0  0  0  0  0  0  0
    3.0050    0.5346    0.0000 O   0  0  0  0  0  0  0  0  0  0  0  0
   -0.3689    2.4847    0.0000 C   0  0  0  0  0  0  0  0  0  0  0  0
   -2.8678   -0.9235    0.0000 C   0  0  0  0  0  0  0  0  0  0  0  0
   -3.0050   -0.2088    0.0000 C   0  0  0  0  0  0  0  0  0  0  0  0
    0.4776   -1.8956    0.0000 O   0  0  0  0  0  0  0  0  0  0  0  0
    1.5527   -2.4847    0.0000 C   0  0  0  0  0  0  0  0  0  0  0  0
    2.7706   -1.9244    0.0000 C   0  0  0  0  0  0  0  0  0  0  0  0
  2  1  1  0  0  0  0
  3  2  1  0  0  0  0
  4  1  1  0  0  0  0
  5  2  2  0  0  0  0
  6  7  1  0  0  0  0
  7  4  1  0  0  0  0
  8  3  1  0  0  0  0
  9  8  1  0  0  0  0
 10  3  2  0  0  0  0
 11 10  1  0  0  0  0
 12 11  2  0  0  0  0
 13  1  2  0  0  0  0
 14  4  2  0  0  0  0
 15  5  1  0  0  0  0
 16  9  2  0  0  0  0
 17 15  2  0  0  0  0
  7 18  1  0  0  0  0
 19  7  1  0  0  0  0
 20 13  1  0  0  0  0
 21 20  1  0  0  0  0
 22 21  1  0  0  0  0
  6  5  1  0  0  0  0
 17 10  1  0  0  0  0
  9 12  1  0  0  0  0
M  END
>  <IDNUMBER> (0080-0022)
0080-0022

>  <available> (0080-0022)
49

>  <H_acceptor> (0080-0022)
5

>  <H_donor> (0080-0022)
0

>  <B_rotN> (0080-0022)
2

>  <N_O> (0080-0022)
5

>  <logP> (0080-0022)
1.9

>  <logD> (0080-0022)
2.35

>  <logSw> (0080-0022)
-5.01

>  <PSA> (0080-0022)
61.83

>  <Chiral_centers> (0080-0022)
0

>  <Name> (0080-0022)
(10Z)-10-(ethoxymethylidene)-8,8-dimethyl-2H,8H,9H,10H-pyrano[2,3-h]chromene-2,9-dione

>  <Smile> (0080-0022)
CCOC=C1C(C(Oc2c1c1c(cc2)C=CC(O1)=O)(C)C)=O

>  <Collection> (0080-0022)
DC

>  <InChI Key> (0080-0022)
CSFNFMQISMHFGR-LUAWRHEFSA-N

>  <PERCENTSP3> (0080-0022)
29.4

$$$$

  -ISIS-  -- StrEd -- 

 34 38  0  0  0  0  0  0  0  0999 V2000
   -0.6833   -1.2801    0.0000 C   0  0  0  0  0  0  0  0  0  0  0  0
    1.8195   -0.7913    0.0000 C   0  0  0  0  0  0  0  0  0  0  0  0
    1.8195    0.1726    0.0000 C   0  0  0  0  0  0  0  0  0  0  0  0
   -0.6833   -2.2439    0.0000 C   0  0  0  0  0  0  0  0  0  0  0  0
    0.1439   -0.7913    0.0000 C   0  0  2  0  0  0  0  0  0  0  0  0
    0.9709   -1.2801    0.0000 C   0  0  1  0  0  0  0  0  0  0  0  0
    3.0276    1.4527    0.0000 C   0  0  0  0  0  0  0  0  0  0  0  0
    2.7185    0.4315    0.0000 C   0  0  0  0  0  0  0  0  0  0  0  0
    2.4235    2.2580    0.0000 C   0  0  0  0  0  0  0  0  0  0  0  0
   -0.6687    0.0143    0.0000 C   0  0  0  0  0  0  0  0  0  0  0  0
    3.0276    3.1570    0.0000 C   0  0  0  0  0  0  0  0  0  0  0  0
    2.7185   -1.0860    0.0000 C   0  0  0  0  0  0  0  0  0  0  0  0
    0.9709    0.6544    0.0000 C   0  0  0  0  0  0  0  0  0  0  0  0
   -0.6687    1.2225    0.0000 N   0  0  0  0  0  0  0  0  0  0  0  0
   -1.5607   -2.6899    0.0000 C   0  0  0  0  0  0  0  0  0  0  0  0
   -1.5607   -0.7913    0.0000 C   0  0  0  0  0  0  0  0  0  0  0  0
    0.1439    0.1726    0.0000 C   0  0  0  0  0  0  0  0  0  0  0  0
    4.0489    2.8334    0.0000 O   0  0  0  0  0  0  0  0  0  0  0  0
    3.2724   -0.3094    0.0000 C   0  0  0  0  0  0  0  0  0  0  0  0
    0.9709   -2.2439    0.0000 C   0  0  0  0  0  0  0  0  0  0  0  0
    0.1439   -2.6899    0.0000 C   0  0  0  0  0  0  0  0  0  0  0  0
    4.0489    1.7977    0.0000 C   0  0  0  0  0  0  0  0  0  0  0  0
   -3.2003   -3.7255    0.0000 C   0  0  0  0  0  0  0  0  0  0  0  0
   -2.3373   -2.2439    0.0000 C   0  0  0  0  0  0  0  0  0  0  0  0
   -3.2003   -2.7473    0.0000 O   0  0  0  0  0  0  0  0  0  0  0  0
    2.6825    4.2287    0.0000 O   0  0  0  0  0  0  0  0  0  0  0  0
    1.8195   -1.8125    0.0000 O   0  0  0  0  0  0  0  0  0  0  0  0
   -4.0489   -4.2287    0.0000 O   0  0  0  0  0  0  0  0  0  0  0  0
   -0.6833   -3.5026    0.0000 O   0  0  0  0  0  0  0  0  0  0  0  0
   -2.3373   -1.2801    0.0000 C   0  0  0  0  0  0  0  0  0  0  0  0
    1.8195    1.1218    0.0000 C   0  0  0  0  0  0  0  0  0  0  0  0
   -2.3590   -4.2144    0.0000 C   0  0  0  0  0  0  0  0  0  0  0  0
    0.9709   -0.4315    0.0000 H   0  0  0  0  0  0  0  0  0  0  0  0
    0.1439   -1.7117    0.0000 H   0  0  0  0  0  0  0  0  0  0  0  0
  2  6  1  0  0  0  0
  3 13  1  0  0  0  0
  4  1  1  0  0  0  0
  5  1  1  0  0  0  0
  6  5  1  0  0  0  0
  8  7  1  0  0  0  0
  8  3  1  0  0  0  0
  9  7  2  0  0  0  0
  1 10  1  0  0  0  0
 11  9  1  0  0  0  0
 12  2  1  0  0  0  0
 13 17  1  0  0  0  0
 14 10  3  0  0  0  0
 15  4  1  0  0  0  0
 16  1  1  0  0  0  0
 17  5  1  0  0  0  0
 18 22  1  0  0  0  0
 19 12  1  0  0  0  0
 20  6  1  0  0  0  0
 21  4  1  0  0  0  0
 22  7  1  0  0  0  0
 23 25  1  0  0  0  0
 24 30  1  0  0  0  0
 24 25  1  0  0  0  0
 26 11  2  0  0  0  0
  2 27  1  0  0  0  0
 28 23  2  0  0  0  0
  4 29  1  0  0  0  0
 30 16  1  0  0  0  0
  3 31  1  0  0  0  0
 32 23  1  0  0  0  0
  6 33  1  1  0  0  0
  5 34  1  6  0  0  0
 21 20  1  0  0  0  0
 15 24  1  0  0  0  0
  3  2  1  0  0  0  0
 19  8  1  0  0  0  0
 11 18  1  0  0  0  0
M  END
>  <IDNUMBER> (0449-0077)
0449-0077

>  <available> (0449-0077)
65

>  <H_acceptor> (0449-0077)
7

>  <H_donor> (0449-0077)
2

>  <B_rotN> (0449-0077)
6

>  <N_O> (0449-0077)
7

>  <logP> (0449-0077)
1.84

>  <logD> (0449-0077)
0.96

>  <logSw> (0449-0077)
-1.98

>  <PSA> (0449-0077)
116.85

>  <Chiral_centers> (0449-0077)
8

>  <Name> (0449-0077)
9a-cyano-3a,5a-dihydroxy-11a-methyl-1-(5-oxo-2,5-dihydrofuran-3-yl)-hexadecahydro-1H-cyclopenta[a]phenanthren-7-yl acetate

>  <Smile> (0449-0077)
CC(OC1CC2(C(CC1)(C#N)C1C(C3(O)CCC(C3(CC1)C)C1=CC(OC1)=O)CC2)O)=O

>  <Collection> (0449-0077)
DC

>  <InChI Key> (0449-0077)
FHVFCXBTGPBRDH-BWHPENOJSA-N

>  <PERCENTSP3> (0449-0077)
80

$$$$

  -ISIS-  -- StrEd -- 

 52 58  0  0  0  0  0  0  0  0999 V2000
    4.1110    1.4401    0.0000 C   0  0  0  0  0  0  0  0  0  0  0  0
    1.8865    1.0008    0.0000 C   0  0  0  0  0  0  0  0  0  0  0  0
    4.1110    2.2771    0.0000 C   0  0  0  0  0  0  0  0  0  0  0  0
   -3.1487   -3.8667    0.0000 C   0  0  0  0  0  0  0  0  0  0  0  0
   -3.9367   -4.8360    0.0000 C   0  0  0  0  0  0  0  0  0  0  0  0
    1.8865    0.1500    0.0000 C   0  0  0  0  0  0  0  0  0  0  0  0
   -5.4568   -4.8360    0.0000 C   0  0  0  0  0  0  0  0  0  0  0  0
    2.6396    1.4401    0.0000 C   0  0  2  0  0  0  0  0  0  0  0  0
    3.3439    1.0008    0.0000 C   0  0  1  0  0  0  0  0  0  0  0  0
   -3.9367   -2.8488    0.0000 O   0  0  0  0  0  0  0  0  0  0  0  0
    5.2546    3.3161    0.0000 C   0  0  0  0  0  0  0  0  0  0  0  0
   -3.1487   -1.4541    0.0000 C   0  0  0  0  0  0  0  0  0  0  0  0
   -3.1487   -2.7303    0.0000 O   0  0  0  0  0  0  0  0  0  0  0  0
    4.8989    2.5280    0.0000 C   0  0  0  0  0  0  0  0  0  0  0  0
   -6.2100   -3.8667    0.0000 C   0  0  0  0  0  0  0  0  0  0  0  0
   -5.4568   -2.8488    0.0000 C   0  0  0  0  0  0  0  0  0  0  0  0
   -0.3173   -1.4541    0.0000 C   0  0  0  0  0  0  0  0  0  0  0  0
   -1.0567   -0.5055    0.0000 O   0  0  0  0  0  0  0  0  0  0  0  0
   -1.0567   -2.3745    0.0000 C   0  0  0  0  0  0  0  0  0  0  0  0
    4.8849    4.0831    0.0000 C   0  0  0  0  0  0  0  0  0  0  0  0
   -2.4442   -2.3745    0.0000 C   0  0  0  0  0  0  0  0  0  0  0  0
   -2.4442   -0.5055    0.0000 C   0  0  0  0  0  0  0  0  0  0  0  0
    5.4850    4.6829    0.0000 C   0  0  0  0  0  0  0  0  0  0  0  0
    4.8989    1.1681    0.0000 C   0  0  0  0  0  0  0  0  0  0  0  0
    3.3439    2.7093    0.0000 C   0  0  0  0  0  0  0  0  0  0  0  0
    1.1193   -0.2544    0.0000 C   0  0  0  0  0  0  0  0  0  0  0  0
    1.1193    1.4401    0.0000 C   0  0  0  0  0  0  0  0  0  0  0  0
    2.6396    2.2771    0.0000 C   0  0  0  0  0  0  0  0  0  0  0  0
    6.2100    4.2994    0.0000 O   0  0  0  0  0  0  0  0  0  0  0  0
    5.3732    1.8585    0.0000 C   0  0  0  0  0  0  0  0  0  0  0  0
    3.3439    0.1500    0.0000 C   0  0  0  0  0  0  0  0  0  0  0  0
    2.6396   -0.2544    0.0000 C   0  0  0  0  0  0  0  0  0  0  0  0
    6.0914    3.4625    0.0000 C   0  0  0  0  0  0  0  0  0  0  0  0
    1.8865    1.8585    0.0000 C   0  0  0  0  0  0  0  0  0  0  0  0
   -0.3173   -0.3033    0.0000 O   0  0  0  0  0  0  0  0  0  0  0  0
    0.4151    0.1500    0.0000 C   0  0  0  0  0  0  0  0  0  0  0  0
    5.1710    5.7219    0.0000 O   0  0  0  0  0  0  0  0  0  0  0  0
    4.0970    0.3870    0.0000 O   0  0  0  0  0  0  0  0  0  0  0  0
   -3.9367   -5.7219    0.0000 O   0  0  0  0  0  0  0  0  0  0  0  0
    1.8865   -0.9868    0.0000 O   0  0  0  0  0  0  0  0  0  0  0  0
    1.1193    2.2771    0.0000 O   0  0  0  0  0  0  0  0  0  0  0  0
   -5.4568   -3.9505    0.0000 O   0  0  0  0  0  0  0  0  0  0  0  0
   -6.2100   -5.0245    0.0000 O   0  0  0  0  0  0  0  0  0  0  0  0
    0.4151    1.0008    0.0000 C   0  0  0  0  0  0  0  0  0  0  0  0
    4.0970    3.2812    0.0000 C   0  0  0  0  0  0  0  0  0  0  0  0
   -2.4302   -3.2950    0.0000 O   0  0  0  0  0  0  0  0  0  0  0  0
   -5.4776   -1.8094    0.0000 C   0  0  0  0  0  0  0  0  0  0  0  0
   -4.5017   -1.1888    0.0000 O   0  0  0  0  0  0  0  0  0  0  0  0
   -2.4442    0.4708    0.0000 C   0  0  0  0  0  0  0  0  0  0  0  0
   -1.4888   -3.8180    0.0000 C   0  0  0  0  0  0  0  0  0  0  0  0
    2.6396    0.4987    0.0000 H   0  0  0  0  0  0  0  0  0  0  0  0
    3.3301    1.9771    0.0000 H   0  0  0  0  0  0  0  0  0  0  0  0
  2  8  1  0  0  0  0
  3  1  1  0  0  0  0
  4 13  1  0  0  0  0
  5  4  1  0  0  0  0
  6 32  1  0  0  0  0
  7  5  1  0  0  0  0
  8  9  1  0  0  0  0
  9  1  1  0  0  0  0
 10  4  1  0  0  0  0
 14 11  1  0  0  0  0
 12 21  1  0  0  0  0
 12 13  1  0  0  0  0
 14  3  1  0  0  0  0
 15 16  1  0  0  0  0
 16 10  1  0  0  0  0
 17 35  1  0  0  0  0
 18 17  1  0  0  0  0
 19 17  1  0  0  0  0
 20 11  2  0  0  0  0
 21 19  1  0  0  0  0
 22 18  1  0  0  0  0
 23 20  1  0  0  0  0
 24  1  1  0  0  0  0
 25  3  1  0  0  0  0
 26  6  1  0  0  0  0
 27  2  1  0  0  0  0
 28  8  1  0  0  0  0
 29 33  1  0  0  0  0
 30 24  1  0  0  0  0
 31  9  1  0  0  0  0
 32 31  1  0  0  0  0
 33 11  1  0  0  0  0
  2 34  1  0  0  0  0
 36 35  1  0  0  0  0
 36 26  1  0  0  0  0
 37 23  2  0  0  0  0
  1 38  1  0  0  0  0
  5 39  1  0  0  0  0
  6 40  1  0  0  0  0
 41 34  2  0  0  0  0
  7 42  1  0  0  0  0
 15 43  1  0  0  0  0
 44 27  1  0  0  0  0
  3 45  1  0  0  0  0
 21 46  1  0  0  0  0
 16 47  1  0  0  0  0
 48 47  1  0  0  0  0
 22 49  1  0  0  0  0
 50 46  1  0  0  0  0
  8 51  1  6  0  0  0
  9 52  1  1  0  0  0
 14 30  1  0  0  0  0
 28 25  1  0  0  0  0
  6  2  1  0  0  0  0
 36 44  1  0  0  0  0
 23 29  1  0  0  0  0
 12 22  1  0  0  0  0
 15  7  1  0  0  0  0
M  END
>  <IDNUMBER> (0449-0122)
0449-0122

>  <available> (0449-0122)
87

>  <H_acceptor> (0449-0122)
14

>  <H_donor> (0449-0122)
6

>  <B_rotN> (0449-0122)
14

>  <N_O> (0449-0122)
14

>  <logP> (0449-0122)
-0.2

>  <logD> (0449-0122)
-1.12

>  <logSw> (0449-0122)
-0.7

>  <PSA> (0449-0122)
210.9

>  <Chiral_centers> (0449-0122)
17

>  <Name> (0449-0122)
3a,5a-dihydroxy-7-[(4-methoxy-6-methyl-5-{[3,4,5-trihydroxy-6-(hydroxymethyl)oxan-2-yl]oxy}oxan-2-yl)oxy]-11a-methyl-1-(5-oxo-2,5-dihydrofuran-3-yl)-hexadecahydro-1H-cyclopenta[a]phenanthrene-9a-carba
ldehyde

>  <Smile> (0449-0122)
COC1C(C(OC(OC2CC3(C(C4C(C5(O)CCC(C5(C)CC4)C4=CC(OC4)=O)CC3)(C=O)CC2)O)C1)C)OC1C(C(O)C(C(O1)CO)O)O

>  <Collection> (0449-0122)
DC

>  <InChI Key> (0449-0122)
FHIREUBIEIPPMC-AWQBPVPBSA-N

>  <PERCENTSP3> (0449-0122)
88.9

$$$$

  -ISIS-  -- StrEd -- 

 73 79  0  0  0  0  0  0  0  0999 V2000
    2.7002    3.0872    0.0000 C   0  0  0  0  0  0  0  0  0  0  0  0
    1.8732    1.6178    0.0000 C   0  0  1  0  0  0  0  0  0  0  0  0
    2.7002    2.0948    0.0000 C   0  0  2  0  0  0  0  0  0  0  0  0
    0.1699    1.6178    0.0000 C   0  0  2  0  0  0  0  0  0  0  0  0
   -3.3331   -2.2165    0.0000 C   0  0  0  0  0  0  0  0  0  0  0  0
   -5.3376   -4.5034    0.0000 C   0  0  0  0  0  0  0  0  0  0  0  0
   -4.6762   -0.3918    0.0000 C   0  0  0  0  0  0  0  0  0  0  0  0
   -4.6762   -2.2165    0.0000 C   0  0  0  0  0  0  0  0  0  0  0  0
   -5.4110   -1.3501    0.0000 C   0  0  0  0  0  0  0  0  0  0  0  0
   -6.1214   -5.4376    0.0000 C   0  0  0  0  0  0  0  0  0  0  0  0
   -5.3376   -6.3817    0.0000 C   0  0  0  0  0  0  0  0  0  0  0  0
   -4.0240   -6.3817    0.0000 C   0  0  0  0  0  0  0  0  0  0  0  0
   -3.2991   -5.4376    0.0000 C   0  0  0  0  0  0  0  0  0  0  0  0
    1.0216    2.0948    0.0000 C   0  0  0  0  0  0  0  0  0  0  0  0
   -2.5983   -1.3501    0.0000 C   0  0  0  0  0  0  0  0  0  0  0  0
   -4.0240   -4.5034    0.0000 O   0  0  0  0  0  0  0  0  0  0  0  0
   -3.3331   -0.3918    0.0000 O   0  0  0  0  0  0  0  0  0  0  0  0
    1.8732    3.6373    0.0000 C   0  0  0  0  0  0  0  0  0  0  0  0
    1.0216    3.0872    0.0000 C   0  0  0  0  0  0  0  0  0  0  0  0
    0.1699    0.5277    0.0000 C   0  0  0  0  0  0  0  0  0  0  0  0
    3.8099    3.8560    0.0000 C   0  0  0  0  0  0  0  0  0  0  0  0
   -3.2991   -3.7688    0.0000 O   0  0  0  0  0  0  0  0  0  0  0  0
   -0.7546   -0.0174    0.0000 C   0  0  1  0  0  0  0  0  0  0  0  0
    4.8754    5.6903    0.0000 C   0  0  1  0  0  0  0  0  0  0  0  0
    3.8099    5.0820    0.0000 C   0  0  0  0  0  0  0  0  0  0  0  0
    4.8754    3.2380    0.0000 C   0  0  1  0  0  0  0  0  0  0  0  0
   -5.3376   -3.9098    0.0000 C   0  0  0  0  0  0  0  0  0  0  0  0
   -4.6762    0.1777    0.0000 C   0  0  0  0  0  0  0  0  0  0  0  0
   -2.5983   -0.0174    0.0000 O   0  0  0  0  0  0  0  0  0  0  0  0
   -1.6205    0.5277    0.0000 C   0  0  0  0  0  0  0  0  0  0  0  0
    1.8732    0.5277    0.0000 C   0  0  0  0  0  0  0  0  0  0  0  0
    5.9119    6.3913    0.0000 C   0  0  0  0  0  0  0  0  0  0  0  0
   -6.1214   -6.0312    0.0000 O   0  0  0  0  0  0  0  0  0  0  0  0
   -5.4207   -1.9000    0.0000 O   0  0  0  0  0  0  0  0  0  0  0  0
   -4.6762   -1.7494    0.0000 O   0  0  0  0  0  0  0  0  0  0  0  0
   -5.3376   -5.8950    0.0000 O   0  0  0  0  0  0  0  0  0  0  0  0
   -0.7546    2.0948    0.0000 C   0  0  0  0  0  0  0  0  0  0  0  0
   -4.0240   -6.8488    0.0000 O   0  0  0  0  0  0  0  0  0  0  0  0
    3.8099    1.3844    0.0000 C   0  0  0  0  0  0  0  0  0  0  0  0
    1.0216   -0.0174    0.0000 C   0  0  0  0  0  0  0  0  0  0  0  0
   -4.7928   -5.6809    0.0000 C   0  0  0  0  0  0  0  0  0  0  0  0
   -6.5982   -6.3476    0.0000 C   0  0  0  0  0  0  0  0  0  0  0  0
   -3.5229   -7.1408    0.0000 C   0  0  0  0  0  0  0  0  0  0  0  0
   -5.9023   -2.1436    0.0000 C   0  0  0  0  0  0  0  0  0  0  0  0
   -4.1312   -1.5497    0.0000 C   0  0  0  0  0  0  0  0  0  0  0  0
   -0.0292    3.7196    0.0000 O   0  0  0  0  0  0  0  0  0  0  0  0
    4.8754    1.9780    0.0000 C   0  0  0  0  0  0  0  0  0  0  0  0
   -1.6205    1.6178    0.0000 C   0  0  0  0  0  0  0  0  0  0  0  0
    5.9602    5.0820    0.0000 C   0  0  0  0  0  0  0  0  0  0  0  0
    5.9602    3.8560    0.0000 C   0  0  0  0  0  0  0  0  0  0  0  0
   -3.9900    0.5863    0.0000 O   0  0  0  0  0  0  0  0  0  0  0  0
   -4.6374   -3.2431    0.0000 O   0  0  0  0  0  0  0  0  0  0  0  0
    5.9119    7.7245    0.0000 O   0  0  0  0  0  0  0  0  0  0  0  0
   -3.5229   -7.7245    0.0000 O   0  0  0  0  0  0  0  0  0  0  0  0
   -7.1382   -6.1137    0.0000 O   0  0  0  0  0  0  0  0  0  0  0  0
   -6.4036   -1.8761    0.0000 O   0  0  0  0  0  0  0  0  0  0  0  0
   -4.3161   -6.0116    0.0000 O   0  0  0  0  0  0  0  0  0  0  0  0
   -3.6494   -1.8855    0.0000 O   0  0  0  0  0  0  0  0  0  0  0  0
    1.8732    2.5713    0.0000 C   0  0  0  0  0  0  0  0  0  0  0  0
    0.1699    2.6297    0.0000 C   0  0  0  0  0  0  0  0  0  0  0  0
    2.7396    0.9364    0.0000 C   0  0  0  0  0  0  0  0  0  0  0  0
   -5.2452    0.4695    0.0000 O   0  0  0  0  0  0  0  0  0  0  0  0
   -6.3061   -3.2868    0.0000 O   0  0  0  0  0  0  0  0  0  0  0  0
    7.1382    5.6903    0.0000 O   0  0  0  0  0  0  0  0  0  0  0  0
    0.0145   -1.0486    0.0000 C   0  0  0  0  0  0  0  0  0  0  0  0
   -1.3624   -1.2434    0.0000 C   0  0  0  0  0  0  0  0  0  0  0  0
    3.8099    6.3814    0.0000 C   0  0  0  0  0  0  0  0  0  0  0  0
    6.1014    2.5035    0.0000 C   0  0  0  0  0  0  0  0  0  0  0  0
   -2.9974   -6.8876    0.0000 C   0  0  0  0  0  0  0  0  0  0  0  0
   -4.6762   -5.1214    0.0000 C   0  0  0  0  0  0  0  0  0  0  0  0
   -3.9999   -0.9902    0.0000 C   0  0  0  0  0  0  0  0  0  0  0  0
   -6.5885   -6.9313    0.0000 C   0  0  0  0  0  0  0  0  0  0  0  0
   -5.8878   -2.7176    0.0000 C   0  0  0  0  0  0  0  0  0  0  0  0
  2  3  1  0  0  0  0
  3  1  1  0  0  0  0
 14  4  1  0  0  0  0
  5 15  1  0  0  0  0
  6 16  1  0  0  0  0
  7 17  1  0  0  0  0
  8  5  1  0  0  0  0
  9  7  1  0  0  0  0
 10  6  1  0  0  0  0
 11 12  1  0  0  0  0
 12 13  1  0  0  0  0
 13 22  1  0  0  0  0
 14 19  1  0  0  0  0
 15 29  1  0  0  0  0
 16 13  1  0  0  0  0
 17 15  1  0  0  0  0
 18  1  2  0  0  0  0
 19 18  1  0  0  0  0
 20  4  1  0  0  0  0
 21  1  1  0  0  0  0
  5 22  1  0  0  0  0
 23 20  1  0  0  0  0
 24 25  1  0  0  0  0
 25 21  1  0  0  0  0
 26 21  1  0  0  0  0
  6 27  1  0  0  0  0
  7 28  1  0  0  0  0
 30 29  1  0  0  0  0
 30 48  1  0  0  0  0
 31  2  1  0  0  0  0
 32 24  1  0  0  0  0
 10 33  1  0  0  0  0
  9 34  1  0  0  0  0
  8 35  1  0  0  0  0
 11 36  1  0  0  0  0
 37  4  1  0  0  0  0
 12 38  1  0  0  0  0
 39  3  1  0  0  0  0
 40 31  1  0  0  0  0
 41 36  1  0  0  0  0
 42 33  1  0  0  0  0
 43 38  1  0  0  0  0
 44 34  1  0  0  0  0
 45 35  1  0  0  0  0
 46 19  2  0  0  0  0
 47 26  1  0  0  0  0
 48 37  1  0  0  0  0
 49 50  1  0  0  0  0
 50 26  1  0  0  0  0
 51 28  2  0  0  0  0
 52 27  2  0  0  0  0
 53 32  2  0  0  0  0
 54 43  2  0  0  0  0
 55 42  2  0  0  0  0
 56 44  2  0  0  0  0
 57 41  2  0  0  0  0
 58 45  2  0  0  0  0
  2 59  1  1  0  0  0
  4 60  1  1  0  0  0
  3 61  1  6  0  0  0
 62 28  1  0  0  0  0
 63 27  1  0  0  0  0
 64 32  1  0  0  0  0
 23 65  1  6  0  0  0
 23 66  1  1  0  0  0
 24 67  1  6  0  0  0
 26 68  1  1  0  0  0
 69 43  1  0  0  0  0
 70 41  1  0  0  0  0
 71 45  1  0  0  0  0
 72 42  1  0  0  0  0
 73 44  1  0  0  0  0
 47 39  1  0  0  0  0
 14  2  1  0  0  0  0
 49 24  1  0  0  0  0
 20 40  1  0  0  0  0
 30 23  1  0  0  0  0
  8  9  1  0  0  0  0
 10 11  1  0  0  0  0
M  END
>  <IDNUMBER> (N016-0072)
N016-0072

>  <available> (N016-0072)
387

>  <H_acceptor> (N016-0072)
21

>  <H_donor> (N016-0072)
3

>  <B_rotN> (N016-0072)
20

>  <N_O> (N016-0072)
21

>  <logP> (N016-0072)
3.99

>  <logD> (N016-0072)
-2.19

>  <logSw> (N016-0072)
-3.24

>  <PSA> (N016-0072)
297.39

>  <Chiral_centers> (N016-0072)
19

>  <Name> (N016-0072)
3,4-bis(acetyloxy)-6-[(11-carboxy-4,4,6a,6b,8a,11,14b-heptamethyl-14-oxo-1,2,3,4,4a,5,6,6a,6b,7,8,8a,9,10,11,12,12a,14,14a,14b-icosahydropicen-3-yl)oxy]-5-{[3,4,5-tris(acetyloxy)-6-carboxyoxan-2-yl]ox
y}oxane-2-carboxylic acid

>  <Smile> (N016-0072)
CC(OC1C(OC(C(OC2C(C(C(C(O2)C(=O)O)OC(=O)C)OC(=O)C)OC(=O)C)C1OC(=O)C)OC1C(C2C(C3C(C)(CC2)C2(C(C4CC(C(=O)O)(C)CCC4(CC2)C)=CC3=O)C)(C)CC1)(C)C)C(=O)O)=O

>  <Collection> (N016-0072)
DC

>  <InChI Key> (N016-0072)
WRBJTVCSBPOEMQ-YWDDNHCVSA-N

>  <PERCENTSP3> (N016-0072)
78.8

$$$$

  -ISIS-  -- StrEd -- 

 35 39  0  0  0  0  0  0  0  0999 V2000
    1.7930    2.1783    0.0000 C   0  0  0  0  0  0  0  0  0  0  0  0
    0.0339    1.1800    0.0000 C   0  0  0  0  0  0  0  0  0  0  0  0
    1.7930    1.1800    0.0000 C   0  0  0  0  0  0  0  0  0  0  0  0
    2.7087    2.4690    0.0000 C   0  0  0  0  0  0  0  0  0  0  0  0
   -0.8141    0.7003    0.0000 C   0  0  0  0  0  0  0  0  0  0  0  0
    0.9062    0.7003    0.0000 C   0  0  0  0  0  0  0  0  0  0  0  0
    0.0339    2.1783    0.0000 C   0  0  0  0  0  0  0  0  0  0  0  0
    3.3144    1.7130    0.0000 C   0  0  0  0  0  0  0  0  0  0  0  0
    2.7427    0.9134    0.0000 C   0  0  0  0  0  0  0  0  0  0  0  0
   -3.4550   -1.8582    0.0000 C   0  0  0  0  0  0  0  0  0  0  0  0
    0.9062    2.7013    0.0000 C   0  0  0  0  0  0  0  0  0  0  0  0
   -0.8141   -0.3562    0.0000 C   0  0  0  0  0  0  0  0  0  0  0  0
   -1.6862    1.1800    0.0000 C   0  0  0  0  0  0  0  0  0  0  0  0
    0.9062   -0.3562    0.0000 C   0  0  0  0  0  0  0  0  0  0  0  0
   -2.6069   -2.3574    0.0000 C   0  0  0  0  0  0  0  0  0  0  0  0
    2.7087    3.3752    0.0000 C   0  0  0  0  0  0  0  0  0  0  0  0
   -3.4550   -0.8697    0.0000 O   0  0  0  0  0  0  0  0  0  0  0  0
   -1.6862   -0.8310    0.0000 C   0  0  0  0  0  0  0  0  0  0  0  0
    0.0339   -0.8310    0.0000 C   0  0  0  0  0  0  0  0  0  0  0  0
   -4.3030   -2.3430    0.0000 O   0  0  0  0  0  0  0  0  0  0  0  0
   -2.5827   -0.3562    0.0000 C   0  0  0  0  0  0  0  0  0  0  0  0
   -1.7346   -1.8582    0.0000 C   0  0  0  0  0  0  0  0  0  0  0  0
    3.6051    3.8063    0.0000 O   0  0  0  0  0  0  0  0  0  0  0  0
    3.8040    2.8517    0.0000 O   0  0  0  0  0  0  0  0  0  0  0  0
    1.7930    3.2006    0.0000 C   0  0  0  0  0  0  0  0  0  0  0  0
   -2.5827    0.7003    0.0000 C   0  0  0  0  0  0  0  0  0  0  0  0
   -0.8625   -2.3574    0.0000 C   0  0  0  0  0  0  0  0  0  0  0  0
   -0.8141    1.6451    0.0000 C   0  0  0  0  0  0  0  0  0  0  0  0
   -0.0097   -1.8582    0.0000 I   0  0  0  0  0  0  0  0  0  0  0  0
    4.3030    1.7469    0.0000 C   0  0  0  0  0  0  0  0  0  0  0  0
   -2.6069   -3.3702    0.0000 C   0  0  0  0  0  0  0  0  0  0  0  0
   -1.7445   -3.8790    0.0000 C   0  0  0  0  0  0  0  0  0  0  0  0
    1.8606    3.8790    0.0000 C   0  0  0  0  0  0  0  0  0  0  0  0
   -0.8722   -3.3797    0.0000 C   0  0  0  0  0  0  0  0  0  0  0  0
   -0.8383   -1.2768    0.0000 H   0  0  0  0  0  0  0  0  0  0  0  0
  2  7  2  0  0  0  0
  3  1  1  0  0  0  0
  4  1  1  0  0  0  0
  5  2  1  0  0  0  0
  6  3  1  0  0  0  0
  7 11  1  0  0  0  0
  8  4  1  0  0  0  0
  9  3  1  0  0  0  0
 10 17  1  0  0  0  0
 11  1  1  0  0  0  0
 12  5  1  0  0  0  0
 13  5  1  0  0  0  0
 14  6  1  0  0  0  0
 15 10  1  0  0  0  0
 16  4  1  0  0  0  0
 17 21  1  0  0  0  0
 12 18  1  0  0  0  0
 19 14  1  0  0  0  0
 20 10  2  0  0  0  0
 21 26  1  0  0  0  0
 22 15  1  0  0  0  0
 23 16  2  0  0  0  0
 24  4  1  0  0  0  0
  1 25  1  0  0  0  0
 26 13  1  0  0  0  0
 27 22  2  0  0  0  0
  5 28  1  0  0  0  0
 29 27  1  0  0  0  0
 30  8  1  0  0  0  0
 31 15  2  0  0  0  0
 32 31  1  0  0  0  0
 33 16  1  0  0  0  0
 34 32  2  0  0  0  0
 35 12  1  0  0  0  0
  9  8  1  0  0  0  0
  6  2  1  0  0  0  0
 19 12  1  0  0  0  0
 21 18  1  0  0  0  0
 34 27  1  0  0  0  0
M  END
>  <IDNUMBER> (N017-0013)
N017-0013

>  <available> (N017-0013)
109

>  <H_acceptor> (N017-0013)
5

>  <H_donor> (N017-0013)
1

>  <B_rotN> (N017-0013)
5

>  <N_O> (N017-0013)
4

>  <logP> (N017-0013)
5.69

>  <logD> (N017-0013)
8.7

>  <logSw> (N017-0013)
-8.21

>  <PSA> (N017-0013)
63.6

>  <Chiral_centers> (N017-0013)
8

>  <Name> (N017-0013)
1-acetyl-1-hydroxy-2,9a,11a-trimethyl-1H,2H,3H,3aH,3bH,4H,5H,5aH,6H,7H,8H,9H,9aH,11H,11aH-cyclopenta[a]phenanthren-7-yl 3-iodobenzoate

>  <Smile> (N017-0013)
c1c(cc(C(OC2CC3C(C4=CCC5(C)C(C(=O)C)(C(C)CC5C4CC3)O)(CC2)C)=O)cc1)I

>  <Collection> (N017-0013)
DC

>  <InChI Key> (N017-0013)
RHCMOQFYLNZMFY-UHFFFAOYSA-N

>  <PERCENTSP3> (N017-0013)
65.5

$$$$

  -ISIS-  -- StrEd -- 

 25 27  0  0  0  0  0  0  0  0999 V2000
   -0.8875   -2.3203    0.0000 O   0  0  0  0  0  0  0  0  0  0  0  0
   -0.0209   -1.8187    0.0000 C   0  0  0  0  0  0  0  0  0  0  0  0
   -2.6015    0.7048    0.0000 C   0  0  0  0  0  0  0  0  0  0  0  0
    1.7576   -1.8187    0.0000 C   0  0  0  0  0  0  0  0  0  0  0  0
   -1.7462   -1.8187    0.0000 C   0  0  0  0  0  0  0  0  0  0  0  0
    2.6432   -2.3051    0.0000 O   0  0  0  0  0  0  0  0  0  0  0  0
   -0.0209   -0.8076    0.0000 C   0  0  0  0  0  0  0  0  0  0  0  0
   -1.7462   -0.8076    0.0000 C   0  0  0  0  0  0  0  0  0  0  0  0
    0.8646   -2.3051    0.0000 C   0  0  0  0  0  0  0  0  0  0  0  0
   -2.6015   -0.3060    0.0000 O   0  0  0  0  0  0  0  0  0  0  0  0
    1.7576   -0.8076    0.0000 C   0  0  0  0  0  0  0  0  0  0  0  0
    3.4908   -1.8187    0.0000 C   0  0  0  0  0  0  0  0  0  0  0  0
    2.6432   -0.3060    0.0000 C   0  0  0  0  0  0  0  0  0  0  0  0
   -0.8875   -0.3060    0.0000 C   0  0  0  0  0  0  0  0  0  0  0  0
   -3.4680    1.2067    0.0000 C   0  0  0  0  0  0  0  0  0  0  0  0
    0.8646   -0.3060    0.0000 C   0  0  0  0  0  0  0  0  0  0  0  0
    3.4908   -0.8076    0.0000 C   0  0  0  0  0  0  0  0  0  0  0  0
   -1.7273    1.2067    0.0000 O   0  0  0  0  0  0  0  0  0  0  0  0
    4.3459   -2.3051    0.0000 O   0  0  0  0  0  0  0  0  0  0  0  0
   -3.4680    2.2213    0.0000 C   0  0  0  0  0  0  0  0  0  0  0  0
   -2.6015   -2.3203    0.0000 C   0  0  0  0  0  0  0  0  0  0  0  0
   -1.7273   -2.7231    0.0000 C   0  0  0  0  0  0  0  0  0  0  0  0
   -4.3078    0.6898    0.0000 C   0  0  0  0  0  0  0  0  0  0  0  0
   -2.6015    2.7231    0.0000 C   0  0  0  0  0  0  0  0  0  0  0  0
   -4.3459    2.7231    0.0000 H   0  0  0  0  0  0  0  0  0  0  0  0
  2  1  1  0  0  0  0
  3 10  1  0  0  0  0
  4  9  1  0  0  0  0
  5  1  1  0  0  0  0
  6  4  1  0  0  0  0
  7  2  1  0  0  0  0
  8  5  1  0  0  0  0
  9  2  2  0  0  0  0
  8 10  1  0  0  0  0
 11  4  2  0  0  0  0
 12  6  1  0  0  0  0
 13 11  1  0  0  0  0
 14  8  1  0  0  0  0
 15  3  1  0  0  0  0
 16  7  2  0  0  0  0
 17 13  2  0  0  0  0
 18  3  2  0  0  0  0
 19 12  2  0  0  0  0
 20 15  2  0  0  0  0
 21  5  1  0  0  0  0
  5 22  1  0  0  0  0
 23 15  1  0  0  0  0
 24 20  1  0  0  0  0
 25 20  1  0  0  0  0
 14  7  1  0  0  0  0
 11 16  1  0  0  0  0
 17 12  1  0  0  0  0
M  END
>  <IDNUMBER> (N034-0002)
N034-0002

>  <available> (N034-0002)
95

>  <H_acceptor> (N034-0002)
5

>  <H_donor> (N034-0002)
0

>  <B_rotN> (N034-0002)
3

>  <N_O> (N034-0002)
5

>  <logP> (N034-0002)
3.85

>  <logD> (N034-0002)
3.56

>  <logSw> (N034-0002)
-6.08

>  <PSA> (N034-0002)
61.83

>  <Chiral_centers> (N034-0002)
1

>  <Name> (N034-0002)
2,2-dimethyl-8-oxo-2H,3H,4H,8H-pyrano[3,2-g]chromen-3-yl (2Z)-2-methylbut-2-enoate

>  <Smile> (N034-0002)
CC=C(C(OC1C(Oc2c(C1)cc1c(c2)OC(C=C1)=O)(C)C)=O)C

>  <Collection> (N034-0002)
DC

>  <InChI Key> (N034-0002)
AGABNGOXUSXQDD-WZUFQYTHSA-N

>  <PERCENTSP3> (N034-0002)
36.8

$$$$

  -ISIS-  -- StrEd -- 

 42 47  0  0  0  0  0  0  0  0999 V2000
   -1.3242   -1.1931    0.0000 C   0  0  2  0  0  0  0  0  0  0  0  0
    1.2567   -0.6921    0.0000 C   0  0  1  0  0  0  0  0  0  0  0  0
    0.4115   -1.1931    0.0000 C   0  0  1  0  0  0  0  0  0  0  0  0
    2.9997    0.3477    0.0000 C   0  0  0  0  0  0  0  0  0  0  0  0
    2.1170    0.8564    0.0000 C   0  0  0  0  0  0  0  0  0  0  0  0
    1.2567    0.3477    0.0000 C   0  0  0  0  0  0  0  0  0  0  0  0
   -3.0521   -1.1931    0.0000 C   0  0  0  0  0  0  0  0  0  0  0  0
   -0.4488   -0.6921    0.0000 C   0  0  0  0  0  0  0  0  0  0  0  0
   -1.3242   -2.1431    0.0000 C   0  0  0  0  0  0  0  0  0  0  0  0
   -2.1918   -2.6818    0.0000 C   0  0  1  0  0  0  0  0  0  0  0  0
   -3.0521   -2.1431    0.0000 C   0  0  0  0  0  0  0  0  0  0  0  0
   -2.1918   -0.6921    0.0000 C   0  0  0  0  0  0  0  0  0  0  0  0
    2.3563    1.8589    0.0000 C   0  0  1  0  0  0  0  0  0  0  0  0
    3.8973   -0.1907    0.0000 C   0  0  0  0  0  0  0  0  0  0  0  0
   -3.9122   -0.7443    0.0000 C   0  0  0  0  0  0  0  0  0  0  0  0
    2.1170   -1.1409    0.0000 C   0  0  0  0  0  0  0  0  0  0  0  0
    0.4115   -2.1431    0.0000 C   0  0  0  0  0  0  0  0  0  0  0  0
    2.9997   -0.6545    0.0000 C   0  0  0  0  0  0  0  0  0  0  0  0
    3.7554    1.0360    0.0000 C   0  0  0  0  0  0  0  0  0  0  0  0
    0.3815    0.8341    0.0000 C   0  0  0  0  0  0  0  0  0  0  0  0
   -0.4488   -2.6443    0.0000 C   0  0  0  0  0  0  0  0  0  0  0  0
   -0.4488    0.3179    0.0000 C   0  0  0  0  0  0  0  0  0  0  0  0
    3.3438    1.9487    0.0000 C   0  0  0  0  0  0  0  0  0  0  0  0
    1.7056    2.5918    0.0000 C   0  0  0  0  0  0  0  0  0  0  0  0
   -4.0769   -2.6818    0.0000 O   0  0  0  0  0  0  0  0  0  0  0  0
    3.9122   -1.1782    0.0000 O   0  0  0  0  0  0  0  0  0  0  0  0
   -3.9122    0.2431    0.0000 C   0  0  0  0  0  0  0  0  0  0  0  0
    2.0496    3.5272    0.0000 C   0  0  0  0  0  0  0  0  0  0  0  0
   -1.3242   -0.1907    0.0000 C   0  0  0  0  0  0  0  0  0  0  0  0
    1.2567   -1.6420    0.0000 C   0  0  0  0  0  0  0  0  0  0  0  0
    0.4115   -0.2954    0.0000 C   0  0  0  0  0  0  0  0  0  0  0  0
    4.7576    0.2954    0.0000 O   0  0  0  0  0  0  0  0  0  0  0  0
   -3.8749    2.2329    0.0000 C   0  0  0  0  0  0  0  0  0  0  0  0
   -1.6681   -3.5272    0.0000 C   0  0  0  0  0  0  0  0  0  0  0  0
   -3.1419   -3.2952    0.0000 C   0  0  0  0  0  0  0  0  0  0  0  0
   -3.8749    3.2802    0.0000 Br  0  0  0  0  0  0  0  0  0  0  0  0
   -3.0521    0.7441    0.0000 C   0  0  0  0  0  0  0  0  0  0  0  0
   -4.7576    0.7292    0.0000 C   0  0  0  0  0  0  0  0  0  0  0  0
   -4.7576    1.7316    0.0000 C   0  0  0  0  0  0  0  0  0  0  0  0
   -3.0521    1.7542    0.0000 C   0  0  0  0  0  0  0  0  0  0  0  0
    0.7405    2.4348    0.0000 C   0  0  0  0  0  0  0  0  0  0  0  0
    4.7576    1.2828    0.0000 C   0  0  0  0  0  0  0  0  0  0  0  0
  2  3  1  0  0  0  0
  8  3  1  0  0  0  0
  5  4  1  0  0  0  0
  6  5  1  0  0  0  0
  6 20  1  0  0  0  0
  7 12  1  0  0  0  0
  8  1  1  0  0  0  0
  9  1  1  0  0  0  0
 10  9  1  0  0  0  0
 11  7  1  0  0  0  0
 12  1  1  0  0  0  0
 13  5  1  0  0  0  0
  4 14  1  0  0  0  0
 15  7  2  0  0  0  0
 16  2  1  0  0  0  0
 17 21  1  0  0  0  0
 18 16  1  0  0  0  0
 19  4  1  0  0  0  0
 20 22  1  0  0  0  0
 21  9  1  0  0  0  0
 22  8  1  0  0  0  0
 23 13  1  0  0  0  0
 13 24  1  6  0  0  0
 25 11  2  0  0  0  0
 26 14  2  0  0  0  0
 27 15  1  0  0  0  0
 28 24  2  0  0  0  0
  1 29  1  1  0  0  0
  2 30  1  6  0  0  0
  3 31  1  1  0  0  0
 32 14  1  0  0  0  0
 33 39  1  0  0  0  0
 10 34  1  6  0  0  0
 10 35  1  1  0  0  0
 36 33  1  0  0  0  0
 37 27  2  0  0  0  0
 38 27  1  0  0  0  0
 39 38  2  0  0  0  0
 40 37  1  0  0  0  0
 41 24  1  0  0  0  0
 42 32  1  0  0  0  0
 10 11  1  0  0  0  0
 17  3  1  0  0  0  0
  6  2  1  0  0  0  0
  4 18  1  0  0  0  0
 40 33  2  0  0  0  0
 19 23  1  0  0  0  0
M  END
>  <IDNUMBER> (N064-0047)
N064-0047

>  <available> (N064-0047)
120

>  <H_acceptor> (N064-0047)
4

>  <H_donor> (N064-0047)
0

>  <B_rotN> (N064-0047)
4

>  <N_O> (N064-0047)
3

>  <logP> (N064-0047)
9.39

>  <logD> (N064-0047)
10.04

>  <logSw> (N064-0047)
-9.04

>  <PSA> (N064-0047)
43.37

>  <Chiral_centers> (N064-0047)
9

>  <Name> (N064-0047)
methyl (10E)-10-[(4-bromophenyl)methylidene]-5a,5b,8,8,11a-pentamethyl-9-oxo-1-(prop-1-en-2-yl)-icosahydro-1H-cyclopenta[a]chrysene-3a-carboxylate

>  <Smile> (N064-0047)
COC(C12CCC3(C4(CCC5C(CC(C(C5(C)C)=O)=Cc5ccc(Br)cc5)(C4CCC3C1C(CC2)C(=C)C)C)C)C)=O

>  <Collection> (N064-0047)
DC

>  <InChI Key> (N064-0047)
NKSQQJAYNSNXJQ-PDNBFOJESA-N

>  <PERCENTSP3> (N064-0047)
68.4

$$$$

  -ISIS-  -- StrEd -- 

 35 39  0  0  0  0  0  0  0  0999 V2000
    1.2666   -0.7840    0.0000 C   0  0  1  0  0  0  0  0  0  0  0  0
    0.4038   -1.2880    0.0000 C   0  0  1  0  0  0  0  0  0  0  0  0
   -1.3694   -1.2880    0.0000 C   0  0  2  0  0  0  0  0  0  0  0  0
    3.0311    0.2416    0.0000 C   0  0  0  0  0  0  0  0  0  0  0  0
    2.1383    0.7327    0.0000 C   0  0  0  0  0  0  0  0  0  0  0  0
    1.2666    0.2416    0.0000 C   0  0  0  0  0  0  0  0  0  0  0  0
   -0.4975   -0.7840    0.0000 C   0  0  0  0  0  0  0  0  0  0  0  0
   -1.3694   -2.3219    0.0000 C   0  0  0  0  0  0  0  0  0  0  0  0
   -2.2621   -2.8261    0.0000 C   0  0  1  0  0  0  0  0  0  0  0  0
    2.3732    1.7367    0.0000 C   0  0  0  0  0  0  0  0  0  0  0  0
    3.9539   -0.2626    0.0000 C   0  0  0  0  0  0  0  0  0  0  0  0
    2.1383   -1.2880    0.0000 C   0  0  0  0  0  0  0  0  0  0  0  0
    0.3953   -2.3219    0.0000 C   0  0  0  0  0  0  0  0  0  0  0  0
   -3.1423   -2.3219    0.0000 C   0  0  0  0  0  0  0  0  0  0  0  0
    3.0311   -0.7840    0.0000 C   0  0  0  0  0  0  0  0  0  0  0  0
    3.7574    0.8781    0.0000 C   0  0  0  0  0  0  0  0  0  0  0  0
    0.3866    0.7541    0.0000 C   0  0  0  0  0  0  0  0  0  0  0  0
   -2.2621   -0.7840    0.0000 C   0  0  0  0  0  0  0  0  0  0  0  0
   -0.4975    0.2416    0.0000 C   0  0  0  0  0  0  0  0  0  0  0  0
   -0.4975   -2.8261    0.0000 C   0  0  0  0  0  0  0  0  0  0  0  0
    3.3601    1.8306    0.0000 C   0  0  0  0  0  0  0  0  0  0  0  0
    1.7281    2.5057    0.0000 C   0  0  0  0  0  0  0  0  0  0  0  0
   -3.9923   -2.8346    0.0000 N   0  0  0  0  0  0  0  0  0  0  0  0
   -3.1423   -1.2880    0.0000 C   0  0  0  0  0  0  0  0  0  0  0  0
    4.0052   -1.2581    0.0000 O   0  0  0  0  0  0  0  0  0  0  0  0
    2.0784    3.4412    0.0000 C   0  0  0  0  0  0  0  0  0  0  0  0
    1.2666   -1.7196    0.0000 C   0  0  0  0  0  0  0  0  0  0  0  0
    0.3953   -0.3737    0.0000 C   0  0  0  0  0  0  0  0  0  0  0  0
   -1.3694   -0.4038    0.0000 C   0  0  0  0  0  0  0  0  0  0  0  0
    4.8255    0.1988    0.0000 O   0  0  0  0  0  0  0  0  0  0  0  0
   -4.8554   -2.3518    0.0000 O   0  0  0  0  0  0  0  0  0  0  0  0
   -1.5957   -3.4412    0.0000 C   0  0  0  0  0  0  0  0  0  0  0  0
   -2.9285   -3.4412    0.0000 C   0  0  0  0  0  0  0  0  0  0  0  0
    0.7455    2.3433    0.0000 C   0  0  0  0  0  0  0  0  0  0  0  0
    4.8554    1.1941    0.0000 C   0  0  0  0  0  0  0  0  0  0  0  0
  2  1  1  0  0  0  0
  7  3  1  0  0  0  0
  4 15  1  0  0  0  0
  6  5  1  0  0  0  0
  6  1  1  0  0  0  0
  7  2  1  0  0  0  0
  8 20  1  0  0  0  0
  9  8  1  0  0  0  0
 10  5  1  0  0  0  0
  4 11  1  0  0  0  0
 12  1  1  0  0  0  0
 13  2  1  0  0  0  0
 14  9  1  0  0  0  0
 15 12  1  0  0  0  0
 16  4  1  0  0  0  0
 17  6  1  0  0  0  0
 18  3  1  0  0  0  0
 19 17  1  0  0  0  0
 20 13  1  0  0  0  0
 21 10  1  0  0  0  0
 10 22  1  0  0  0  0
 23 14  2  0  0  0  0
 24 18  1  0  0  0  0
 25 11  2  0  0  0  0
 26 22  2  0  0  0  0
  1 27  1  6  0  0  0
  2 28  1  1  0  0  0
  3 29  1  1  0  0  0
 30 11  1  0  0  0  0
 31 23  1  0  0  0  0
  9 32  1  6  0  0  0
  9 33  1  1  0  0  0
 34 22  1  0  0  0  0
 35 30  1  0  0  0  0
  5  4  1  0  0  0  0
 19  7  1  0  0  0  0
 21 16  1  0  0  0  0
  8  3  1  0  0  0  0
 14 24  1  0  0  0  0
M  END
>  <IDNUMBER> (N069-0075)
N069-0075

>  <available> (N069-0075)
897

>  <H_acceptor> (N069-0075)
4

>  <H_donor> (N069-0075)
1

>  <B_rotN> (N069-0075)
4

>  <N_O> (N069-0075)
4

>  <logP> (N069-0075)
6.63

>  <logD> (N069-0075)
7.58

>  <logSw> (N069-0075)
-8.39

>  <PSA> (N069-0075)
58.89

>  <Chiral_centers> (N069-0075)
9

>  <Name> (N069-0075)
methyl (9E)-9-(hydroxyimino)-5a,5b,8,8,11a-pentamethyl-1-(prop-1-en-2-yl)-icosahydro-1H-cyclopenta[a]chrysene-3a-carboxylate

>  <Smile> (N069-0075)
COC(C12CCC3(C(C1C(CC2)C(=C)C)CCC1C3(C)CCC2C1(CCC(C2(C)C)=NO)C)C)=O

>  <Collection> (N069-0075)
DC

>  <InChI Key> (N069-0075)
LDSFBMPNLCLVMM-FOVHIKOWSA-N

>  <PERCENTSP3> (N069-0075)
87.1

$$$$

  -ISIS-  -- StrEd -- 

 42 47  0  0  0  0  0  0  0  0999 V2000
   -0.5145   -1.2849    0.0000 C   0  0  2  0  0  0  0  0  0  0  0  0
    2.1275   -0.7873    0.0000 C   0  0  1  0  0  0  0  0  0  0  0  0
    1.2581   -1.2849    0.0000 C   0  0  1  0  0  0  0  0  0  0  0  0
    3.8905    0.2319    0.0000 C   0  0  0  0  0  0  0  0  0  0  0  0
   -2.2920   -1.2849    0.0000 C   0  0  0  0  0  0  0  0  0  0  0  0
    2.9968    0.7293    0.0000 C   0  0  0  0  0  0  0  0  0  0  0  0
    2.1275    0.2319    0.0000 C   0  0  0  0  0  0  0  0  0  0  0  0
    0.3551   -0.7873    0.0000 C   0  0  0  0  0  0  0  0  0  0  0  0
   -0.5145   -2.3280    0.0000 C   0  0  0  0  0  0  0  0  0  0  0  0
   -1.4079   -2.8256    0.0000 C   0  0  2  0  0  0  0  0  0  0  0  0
   -2.2920   -2.3280    0.0000 C   0  0  0  0  0  0  0  0  0  0  0  0
   -1.4079   -0.7873    0.0000 C   0  0  0  0  0  0  0  0  0  0  0  0
   -3.1371   -0.7777    0.0000 C   0  0  0  0  0  0  0  0  0  0  0  0
    3.2289    1.7387    0.0000 C   0  0  0  0  0  0  0  0  0  0  0  0
    4.8035   -0.2656    0.0000 C   0  0  0  0  0  0  0  0  0  0  0  0
    2.9968   -1.2849    0.0000 C   0  0  0  0  0  0  0  0  0  0  0  0
    1.2484   -2.3280    0.0000 C   0  0  0  0  0  0  0  0  0  0  0  0
    3.8905   -0.7873    0.0000 C   0  0  0  0  0  0  0  0  0  0  0  0
    4.6102    0.8694    0.0000 C   0  0  0  0  0  0  0  0  0  0  0  0
    1.2342    0.7534    0.0000 C   0  0  0  0  0  0  0  0  0  0  0  0
    0.3551   -2.8256    0.0000 C   0  0  0  0  0  0  0  0  0  0  0  0
    0.3551    0.2319    0.0000 C   0  0  0  0  0  0  0  0  0  0  0  0
    4.2140    1.8305    0.0000 C   0  0  0  0  0  0  0  0  0  0  0  0
    2.5817    2.5067    0.0000 C   0  0  0  0  0  0  0  0  0  0  0  0
   -3.1225    0.2319    0.0000 C   0  0  0  0  0  0  0  0  0  0  0  0
   -3.1371   -2.8401    0.0000 O   0  0  0  0  0  0  0  0  0  0  0  0
    4.8614   -1.2608    0.0000 O   0  0  0  0  0  0  0  0  0  0  0  0
   -3.9485    0.7680    0.0000 C   0  0  0  0  0  0  0  0  0  0  0  0
    2.9295    3.4438    0.0000 C   0  0  0  0  0  0  0  0  0  0  0  0
   -0.5145   -0.4058    0.0000 C   0  0  0  0  0  0  0  0  0  0  0  0
    2.1275   -1.7244    0.0000 C   0  0  0  0  0  0  0  0  0  0  0  0
    5.6728    0.2319    0.0000 O   0  0  0  0  0  0  0  0  0  0  0  0
    1.2484   -0.3815    0.0000 C   0  0  0  0  0  0  0  0  0  0  0  0
   -2.0697   -3.4438    0.0000 C   0  0  0  0  0  0  0  0  0  0  0  0
   -0.7366   -3.4438    0.0000 C   0  0  0  0  0  0  0  0  0  0  0  0
   -4.8178    0.2898    0.0000 O   0  0  0  0  0  0  0  0  0  0  0  0
    1.5962    2.3425    0.0000 C   0  0  0  0  0  0  0  0  0  0  0  0
   -2.2291    0.7293    0.0000 C   0  0  0  0  0  0  0  0  0  0  0  0
   -3.9244    1.7628    0.0000 C   0  0  0  0  0  0  0  0  0  0  0  0
   -5.6728    0.8018    0.0000 C   0  0  0  0  0  0  0  0  0  0  0  0
   -2.2097    1.7387    0.0000 C   0  0  0  0  0  0  0  0  0  0  0  0
   -3.0646    2.2507    0.0000 C   0  0  0  0  0  0  0  0  0  0  0  0
  2  3  1  0  0  0  0
  8  3  1  0  0  0  0
  6  4  1  0  0  0  0
  5 12  1  0  0  0  0
  7  6  1  0  0  0  0
  7 20  1  0  0  0  0
  8  1  1  0  0  0  0
  9  1  1  0  0  0  0
 10  9  1  0  0  0  0
 11  5  1  0  0  0  0
 12  1  1  0  0  0  0
 13  5  2  0  0  0  0
 14  6  1  0  0  0  0
  4 15  1  0  0  0  0
 16  2  1  0  0  0  0
 17 21  1  0  0  0  0
 18 16  1  0  0  0  0
 19  4  1  0  0  0  0
 20 22  1  0  0  0  0
 21  9  1  0  0  0  0
 22  8  1  0  0  0  0
 23 14  1  0  0  0  0
 14 24  1  0  0  0  0
 25 13  1  0  0  0  0
 26 11  2  0  0  0  0
 27 15  2  0  0  0  0
 28 25  1  0  0  0  0
 29 24  2  0  0  0  0
  1 30  1  1  0  0  0
  2 31  1  6  0  0  0
 32 15  1  0  0  0  0
  3 33  1  1  0  0  0
 10 34  1  1  0  0  0
 10 35  1  6  0  0  0
 36 28  1  0  0  0  0
 37 24  1  0  0  0  0
 38 25  2  0  0  0  0
 39 28  2  0  0  0  0
 40 36  1  0  0  0  0
 41 38  1  0  0  0  0
 42 41  2  0  0  0  0
 11 10  1  0  0  0  0
  3 17  1  0  0  0  0
  2  7  1  0  0  0  0
 18  4  1  0  0  0  0
 39 42  1  0  0  0  0
 19 23  1  0  0  0  0
M  END
>  <IDNUMBER> (N069-0079)
N069-0079

>  <available> (N069-0079)
163

>  <H_acceptor> (N069-0079)
4

>  <H_donor> (N069-0079)
1

>  <B_rotN> (N069-0079)
5

>  <N_O> (N069-0079)
4

>  <logP> (N069-0079)
8.38

>  <logD> (N069-0079)
7.08

>  <logSw> (N069-0079)
-6.81

>  <PSA> (N069-0079)
63.6

>  <Chiral_centers> (N069-0079)
9

>  <Name> (N069-0079)
(10E)-10-[(2-methoxyphenyl)methylidene]-5a,5b,8,8,11a-pentamethyl-9-oxo-1-(prop-1-en-2-yl)-icosahydro-1H-cyclopenta[a]chrysene-3a-carboxylic acid

>  <Smile> (N069-0079)
c1cc(c(C=C2CC3(C(CCC4(C5(C(C6C(C(=O)O)(CC5)CCC6C(=C)C)CCC43)C)C)C(C2=O)(C)C)C)cc1)OC

>  <Collection> (N069-0079)
DC

>  <InChI Key> (N069-0079)
QWQHLLFAUQXEKW-RPXVOVKVSA-N

>  <PERCENTSP3> (N069-0079)
68.4

$$$$

  -ISIS-  -- StrEd -- 

 39 44  0  0  0  0  0  0  0  0999 V2000
    1.7283    2.0862    0.0000 N   0  0  0  0  0  0  0  0  0  0  0  0
   -1.2824   -2.2456    0.0000 C   0  0  0  0  0  0  0  0  0  0  0  0
   -0.3579   -1.7173    0.0000 C   0  0  2  0  0  0  0  0  0  0  0  0
    1.5467    0.2917    0.0000 C   0  0  0  0  0  0  0  0  0  0  0  0
    0.5668   -2.2456    0.0000 C   0  0  0  0  0  0  0  0  0  0  0  0
    0.9137   -0.5835    0.0000 C   0  0  1  0  0  0  0  0  0  0  0  0
    3.2088    1.0293    0.0000 C   0  0  1  0  0  0  0  0  0  0  0  0
    2.6037    0.1596    0.0000 C   0  0  0  0  0  0  0  0  0  0  0  0
    1.3596   -1.5355    0.0000 C   0  0  1  0  0  0  0  0  0  0  0  0
    2.7851    1.9815    0.0000 C   0  0  2  0  0  0  0  0  0  0  0  0
   -1.2824   -3.3025    0.0000 C   0  0  1  0  0  0  0  0  0  0  0  0
    1.0953    1.2386    0.0000 C   0  0  0  0  0  0  0  0  0  0  0  0
   -0.3579   -3.8310    0.0000 C   0  0  0  0  0  0  0  0  0  0  0  0
   -0.1431   -0.6880    0.0000 C   0  0  0  0  0  0  0  0  0  0  0  0
    0.5668   -3.3025    0.0000 C   0  0  0  0  0  0  0  0  0  0  0  0
   -2.1798   -1.7173    0.0000 C   0  0  0  0  0  0  0  0  0  0  0  0
    2.9999   -0.7651    0.0000 C   0  0  0  0  0  0  0  0  0  0  0  0
    2.3888   -1.6402    0.0000 C   0  0  0  0  0  0  0  0  0  0  0  0
    1.2824    3.0659    0.0000 C   0  0  0  0  0  0  0  0  0  0  0  0
    3.3963    2.8238    0.0000 C   0  0  0  0  0  0  0  0  0  0  0  0
   -2.1798   -3.8310    0.0000 C   0  0  0  0  0  0  0  0  0  0  0  0
   -0.3579   -4.8878    0.0000 O   0  0  0  0  0  0  0  0  0  0  0  0
   -3.1044   -3.3025    0.0000 C   0  0  0  0  0  0  0  0  0  0  0  0
    4.0566    1.6900    0.0000 O   0  0  0  0  0  0  0  0  0  0  0  0
   -4.0566   -3.8310    0.0000 O   0  0  0  0  0  0  0  0  0  0  0  0
   -3.1044   -2.2456    0.0000 C   0  0  0  0  0  0  0  0  0  0  0  0
   -1.2824   -1.1890    0.0000 C   0  0  0  0  0  0  0  0  0  0  0  0
    2.9722    3.7758    0.0000 C   0  0  0  0  0  0  0  0  0  0  0  0
    3.8695    0.2091    0.0000 C   0  0  0  0  0  0  0  0  0  0  0  0
    1.9154    3.9080    0.0000 C   0  0  0  0  0  0  0  0  0  0  0  0
    1.4917    4.8878    0.0000 C   0  0  0  0  0  0  0  0  0  0  0  0
   -0.3579   -2.4824    0.0000 H   0  0  0  0  0  0  0  0  0  0  0  0
    0.5560   -1.5355    0.0000 H   0  0  0  0  0  0  0  0  0  0  0  0
    0.6495    0.0110    0.0000 H   0  0  0  0  0  0  0  0  0  0  0  0
    1.6512   -2.1522    0.0000 H   0  0  0  0  0  0  0  0  0  0  0  0
    1.9431   -0.3192    0.0000 H   0  0  0  0  0  0  0  0  0  0  0  0
    2.3006    0.7651    0.0000 H   0  0  0  0  0  0  0  0  0  0  0  0
    2.4714    2.7190    0.0000 H   0  0  0  0  0  0  0  0  0  0  0  0
   -1.2824   -4.2162    0.0000 H   0  0  0  0  0  0  0  0  0  0  0  0
  2  3  1  0  0  0  0
  3 14  1  0  0  0  0
  4 12  1  0  0  0  0
  5  9  1  0  0  0  0
  6  4  1  0  0  0  0
  7 10  1  0  0  0  0
  8  4  1  0  0  0  0
  9  6  1  0  0  0  0
 10  1  1  0  0  0  0
 11  2  1  0  0  0  0
 12  1  1  0  0  0  0
 13 15  1  0  0  0  0
 14  6  1  0  0  0  0
 15  5  1  0  0  0  0
 16  2  1  0  0  0  0
 17  8  1  0  0  0  0
 18 17  1  0  0  0  0
 19  1  1  0  0  0  0
 20 10  1  0  0  0  0
 21 11  1  0  0  0  0
 22 13  2  0  0  0  0
 23 26  1  0  0  0  0
 24  7  1  0  0  0  0
 25 23  2  0  0  0  0
 26 16  1  0  0  0  0
  2 27  1  0  0  0  0
 28 30  1  0  0  0  0
  7 29  1  6  0  0  0
 30 19  1  0  0  0  0
 30 31  1  0  0  0  0
  3 32  1  6  0  0  0
  5 33  1  0  0  0  0
  6 34  1  6  0  0  0
  9 35  1  6  0  0  0
  4 36  1  0  0  0  0
  8 37  1  0  0  0  0
 10 38  1  6  0  0  0
 11 39  1  6  0  0  0
 20 28  1  0  0  0  0
  8  7  1  0  0  0  0
 18  9  1  0  0  0  0
  3  5  1  0  0  0  0
 13 11  1  0  0  0  0
 21 23  1  0  0  0  0
M  END
>  <IDNUMBER> (N070-0004)
N070-0004

>  <available> (N070-0004)
2

>  <H_acceptor> (N070-0004)
4

>  <H_donor> (N070-0004)
1

>  <B_rotN> (N070-0004)
1

>  <N_O> (N070-0004)
4

>  <logP> (N070-0004)
2.89

>  <logD> (N070-0004)
2.76

>  <logSw> (N070-0004)
-7.11

>  <PSA> (N070-0004)
57.61

>  <Chiral_centers> (N070-0004)
11

>  <Name> (N070-0004)
10-HYDROXY-6,10,23-TRIMETHYL-4-AZAHEXACYCLO[12.11.0.0^(2,11).0^(4,9).0^(15,24).0^(18,23)]PENTACOSANE-17,20-DIONE

>  <Smile> (N070-0004)
CC1CN2CC3C(C(O)(C)C2CC1)CCC1C2C(C4(C(C(C2)=O)CC(CC4)=O)C)CC13

>  <Collection> (N070-0004)
DC

>  <InChI Key> (N070-0004)
HIDAYMRWVVNXAO-JGPVPJBASA-N

>  <PERCENTSP3> (N070-0004)
92.6

$$$$

  -ISIS-  -- StrEd -- 

 28 31  0  0  0  0  0  0  0  0999 V2000
    1.4763   -0.3348    0.0000 C   0  0  0  0  0  0  0  0  0  0  0  0
    2.3532   -0.8268    0.0000 N   0  0  0  0  0  0  0  0  0  0  0  0
    3.2374    0.6715    0.0000 C   0  0  0  0  0  0  0  0  0  0  0  0
    3.2374   -0.3163    0.0000 C   0  0  0  0  0  0  0  0  0  0  0  0
    1.4763    0.6864    0.0000 C   0  0  0  0  0  0  0  0  0  0  0  0
    2.3532    1.1859    0.0000 C   0  0  0  0  0  0  0  0  0  0  0  0
    0.6180   -0.8268    0.0000 C   0  0  0  0  0  0  0  0  0  0  0  0
   -3.9108   -1.9221    0.0000 C   0  0  0  0  0  0  0  0  0  0  0  0
   -4.2956   -1.1376    0.0000 O   0  0  0  0  0  0  0  0  0  0  0  0
   -2.9007   -1.7001    0.0000 O   0  0  0  0  0  0  0  0  0  0  0  0
   -3.7776   -0.2607    0.0000 C   0  0  2  0  0  0  0  0  0  0  0  0
   -2.9193   -0.7787    0.0000 C   0  0  2  0  0  0  0  0  0  0  0  0
    0.6180    1.1859    0.0000 C   0  0  0  0  0  0  0  0  0  0  0  0
    4.1586   -0.6715    0.0000 O   0  0  0  0  0  0  0  0  0  0  0  0
   -0.2664   -0.3163    0.0000 C   0  0  0  0  0  0  0  0  0  0  0  0
    4.2141    0.9638    0.0000 C   0  0  0  0  0  0  0  0  0  0  0  0
    4.7950    0.1388    0.0000 C   0  0  0  0  0  0  0  0  0  0  0  0
   -1.1582   -0.8122    0.0000 O   0  0  0  0  0  0  0  0  0  0  0  0
   -2.0424   -0.2793    0.0000 C   0  0  0  0  0  0  0  0  0  0  0  0
   -0.2664    0.6715    0.0000 C   0  0  0  0  0  0  0  0  0  0  0  0
    2.3532    2.1921    0.0000 O   0  0  0  0  0  0  0  0  0  0  0  0
    0.6180   -1.8482    0.0000 O   0  0  0  0  0  0  0  0  0  0  0  0
   -3.5557   -2.6879    0.0000 C   0  0  0  0  0  0  0  0  0  0  0  0
   -4.7950   -2.4476    0.0000 C   0  0  0  0  0  0  0  0  0  0  0  0
   -4.6618    0.2607    0.0000 C   0  0  0  0  0  0  0  0  0  0  0  0
   -3.2560    0.6160    0.0000 C   0  0  0  0  0  0  0  0  0  0  0  0
    1.4763   -2.3586    0.0000 C   0  0  0  0  0  0  0  0  0  0  0  0
    3.2374    2.6879    0.0000 C   0  0  0  0  0  0  0  0  0  0  0  0
  2  1  1  0  0  0  0
  3  6  2  0  0  0  0
  4  2  2  0  0  0  0
  5  1  2  0  0  0  0
  6  5  1  0  0  0  0
  7  1  1  0  0  0  0
  8 10  1  0  0  0  0
 11  9  1  6  0  0  0
 12 10  1  6  0  0  0
 11 12  1  0  0  0  0
 12 19  1  0  0  0  0
 13  5  1  0  0  0  0
 14  4  1  0  0  0  0
 15  7  2  0  0  0  0
 16  3  1  0  0  0  0
 17 14  1  0  0  0  0
 18 15  1  0  0  0  0
 19 18  1  0  0  0  0
 20 15  1  0  0  0  0
 21  6  1  0  0  0  0
 22  7  1  0  0  0  0
  8 23  1  0  0  0  0
 24  8  1  0  0  0  0
 25 11  1  0  0  0  0
 26 11  1  0  0  0  0
 27 22  1  0  0  0  0
 28 21  1  0  0  0  0
  3  4  1  0  0  0  0
 20 13  2  0  0  0  0
 17 16  2  0  0  0  0
  9  8  1  0  0  0  0
M  END
>  <IDNUMBER> (N038-0008)
N038-0008

>  <available> (N038-0008)
411

>  <H_acceptor> (N038-0008)
5

>  <H_donor> (N038-0008)
1

>  <B_rotN> (N038-0008)
0

>  <N_O> (N038-0008)
6

>  <logP> (N038-0008)
1.47

>  <logD> (N038-0008)
0.65

>  <logSw> (N038-0008)
-0.59

>  <PSA> (N038-0008)
72.18

>  <Chiral_centers> (N038-0008)
1

>  <Name> (N038-0008)
4,8-dimethoxy-7-[(2,2,5,5-tetramethyl-1,3-dioxolan-4-yl)methoxy]furo[2,3-b]quinoline

>  <Smile> (N038-0008)
COc1c2C=COc2[nH0]c2c(c(OCC3OC(OC3(C)C)(C)C)ccc12)OC

>  <Collection> (N038-0008)
DC

>  <InChI Key> (N038-0008)
OVRHYRNVXCEKKO-HNNXBMFYSA-N

>  <PERCENTSP3> (N038-0008)
47.6

$$$$

  -ISIS-  -- StrEd -- 

 23 25  0  0  0  0  0  0  0  0999 V2000
   -1.2767   -1.2548    0.0000 C   0  0  0  0  0  0  0  0  0  0  0  0
    0.4594   -1.2548    0.0000 C   0  0  0  0  0  0  0  0  0  0  0  0
   -0.4066   -1.7628    0.0000 C   0  0  0  0  0  0  0  0  0  0  0  0
    0.4594   -0.2562    0.0000 C   0  0  0  0  0  0  0  0  0  0  0  0
   -1.2767   -0.2562    0.0000 C   0  0  0  0  0  0  0  0  0  0  0  0
   -0.4066    0.2519    0.0000 O   0  0  0  0  0  0  0  0  0  0  0  0
   -2.1472   -1.7628    0.0000 C   0  0  0  0  0  0  0  0  0  0  0  0
   -2.1472    0.2519    0.0000 C   0  0  0  0  0  0  0  0  0  0  0  0
    1.3077    0.2519    0.0000 C   0  0  0  0  0  0  0  0  0  0  0  0
   -3.0175   -0.2562    0.0000 C   0  0  0  0  0  0  0  0  0  0  0  0
   -3.0175   -1.2548    0.0000 C   0  0  0  0  0  0  0  0  0  0  0  0
    1.3077    1.2503    0.0000 C   0  0  0  0  0  0  0  0  0  0  0  0
    2.1559    1.7585    0.0000 C   0  0  0  0  0  0  0  0  0  0  0  0
   -0.4066   -2.7568    0.0000 O   0  0  0  0  0  0  0  0  0  0  0  0
    3.0262    1.2503    0.0000 C   0  0  0  0  0  0  0  0  0  0  0  0
    2.1780   -0.2342    0.0000 C   0  0  0  0  0  0  0  0  0  0  0  0
    1.3298   -1.7406    0.0000 O   0  0  0  0  0  0  0  0  0  0  0  0
    3.0482    0.2519    0.0000 C   0  0  0  0  0  0  0  0  0  0  0  0
   -2.1472   -2.7568    0.0000 O   0  0  0  0  0  0  0  0  0  0  0  0
   -3.8877    0.2297    0.0000 O   0  0  0  0  0  0  0  0  0  0  0  0
    2.1471    2.7568    0.0000 O   0  0  0  0  0  0  0  0  0  0  0  0
    3.8877    1.7493    0.0000 O   0  0  0  0  0  0  0  0  0  0  0  0
   -2.1472    1.2503    0.0000 C   0  0  0  0  0  0  0  0  0  0  0  0
  2  3  1  0  0  0  0
  3  1  1  0  0  0  0
  4  6  1  0  0  0  0
  5  1  2  0  0  0  0
  6  5  1  0  0  0  0
  7  1  1  0  0  0  0
  8  5  1  0  0  0  0
  9  4  1  0  0  0  0
 10 11  1  0  0  0  0
 11  7  2  0  0  0  0
 12  9  1  0  0  0  0
 13 12  2  0  0  0  0
 14  3  2  0  0  0  0
 15 18  2  0  0  0  0
 16  9  2  0  0  0  0
 17  2  1  0  0  0  0
 18 16  1  0  0  0  0
 19  7  1  0  0  0  0
 20 10  1  0  0  0  0
 21 13  1  0  0  0  0
 22 15  1  0  0  0  0
 23  8  1  0  0  0  0
  8 10  2  0  0  0  0
  4  2  2  0  0  0  0
 15 13  1  0  0  0  0
M  END
>  <IDNUMBER> (N025-0038)
N025-0038

>  <available> (N025-0038)
2824

>  <H_acceptor> (N025-0038)
7

>  <H_donor> (N025-0038)
5

>  <B_rotN> (N025-0038)
6

>  <N_O> (N025-0038)
7

>  <logP> (N025-0038)
1.99

>  <logD> (N025-0038)
0.11

>  <logSw> (N025-0038)
-1.87

>  <PSA> (N025-0038)
127.45

>  <Chiral_centers> (N025-0038)
0

>  <Name> (N025-0038)
2-(3,4-dihydroxyphenyl)-3,5,7-trihydroxy-8-methyl-4H-chromen-4-one

>  <Smile> (N025-0038)
Cc1c2c(c(cc1O)O)C(C(=C(O2)c1cc(O)c(cc1)O)O)=O

>  <Collection> (N025-0038)
DC

>  <InChI Key> (N025-0038)
RLKKSOCKDSDBCS-UHFFFAOYSA-N

>  <PERCENTSP3> (N025-0038)
6.3

$$$$

  -ISIS-  -- StrEd -- 

 54 57  0  0  0  0  0  0  0  0999 V2000
   -2.3708   -0.0819    0.0000 C   0  0  0  0  0  0  0  0  0  0  0  0
    3.1882    0.1977    0.0000 C   0  0  0  0  0  0  0  0  0  0  0  0
   -3.2563    0.4632    0.0000 C   0  0  0  0  0  0  0  0  0  0  0  0
    4.7278    0.2178    0.0000 C   0  0  0  0  0  0  0  0  0  0  0  0
   -1.4851    0.4632    0.0000 C   0  0  0  0  0  0  0  0  0  0  0  0
    2.4386   -0.7493    0.0000 C   0  0  0  0  0  0  0  0  0  0  0  0
    5.4633   -0.6541    0.0000 C   0  0  0  0  0  0  0  0  0  0  0  0
   -3.2563    1.4919    0.0000 C   0  0  0  0  0  0  0  0  0  0  0  0
    3.2560   -1.7983    0.0000 O   0  0  0  0  0  0  0  0  0  0  0  0
   -4.1694   -0.0819    0.0000 C   0  0  0  0  0  0  0  0  0  0  0  0
    4.7549   -1.7302    0.0000 C   0  0  0  0  0  0  0  0  0  0  0  0
   -1.4851    1.5260    0.0000 C   0  0  0  0  0  0  0  0  0  0  0  0
   -2.3708    2.0164    0.0000 O   0  0  0  0  0  0  0  0  0  0  0  0
    2.8747    1.2603    0.0000 O   0  0  0  0  0  0  0  0  0  0  0  0
    5.3475    0.0683    0.0000 O   0  0  0  0  0  0  0  0  0  0  0  0
   -4.1694    2.0164    0.0000 C   0  0  0  0  0  0  0  0  0  0  0  0
   -5.0546    0.4632    0.0000 C   0  0  0  0  0  0  0  0  0  0  0  0
   -5.0546    1.5260    0.0000 C   0  0  0  0  0  0  0  0  0  0  0  0
    6.1993   -0.0819    0.0000 O   0  0  0  0  0  0  0  0  0  0  0  0
   -4.1556   -1.0761    0.0000 O   0  0  0  0  0  0  0  0  0  0  0  0
    1.9960   -1.5667    0.0000 O   0  0  0  0  0  0  0  0  0  0  0  0
   -0.5725   -0.0819    0.0000 C   0  0  0  0  0  0  0  0  0  0  0  0
    3.4198    2.1595    0.0000 C   0  0  0  0  0  0  0  0  0  0  0  0
    5.6542    0.8513    0.0000 C   0  0  0  0  0  0  0  0  0  0  0  0
    7.0644   -0.4087    0.0000 C   0  0  0  0  0  0  0  0  0  0  0  0
   -5.1023   -1.6011    0.0000 C   0  0  0  0  0  0  0  0  0  0  0  0
   -2.3570   -1.0628    0.0000 O   0  0  0  0  0  0  0  0  0  0  0  0
   -6.8670    1.6690    0.0000 C   0  0  0  0  0  0  0  0  0  0  0  0
    6.6213   -2.5476    0.0000 C   0  0  0  0  0  0  0  0  0  0  0  0
   -5.9335    2.1121    0.0000 O   0  0  0  0  0  0  0  0  0  0  0  0
    4.7549   -2.6160    0.0000 C   0  0  0  0  0  0  0  0  0  0  0  0
    5.8039   -3.0247    0.0000 O   0  0  0  0  0  0  0  0  0  0  0  0
   -5.1023   -2.5818    0.0000 O   0  0  0  0  0  0  0  0  0  0  0  0
    7.3912   -1.1445    0.0000 O   0  0  0  0  0  0  0  0  0  0  0  0
    2.6840    3.0247    0.0000 O   0  0  0  0  0  0  0  0  0  0  0  0
    5.3817    1.7709    0.0000 O   0  0  0  0  0  0  0  0  0  0  0  0
   -6.8532    0.7084    0.0000 O   0  0  0  0  0  0  0  0  0  0  0  0
    6.6351   -1.6350    0.0000 O   0  0  0  0  0  0  0  0  0  0  0  0
   -0.5725   -1.1105    0.0000 C   0  0  0  0  0  0  0  0  0  0  0  0
    0.3406    0.4632    0.0000 C   0  0  0  0  0  0  0  0  0  0  0  0
    1.2123   -1.1105    0.0000 C   0  0  0  0  0  0  0  0  0  0  0  0
    1.2123   -0.0819    0.0000 C   0  0  0  0  0  0  0  0  0  0  0  0
    0.3406   -1.6350    0.0000 C   0  0  0  0  0  0  0  0  0  0  0  0
   -6.0154   -1.1105    0.0000 C   0  0  0  0  0  0  0  0  0  0  0  0
    6.5261    1.0354    0.0000 C   0  0  0  0  0  0  0  0  0  0  0  0
    7.7524    0.2454    0.0000 C   0  0  0  0  0  0  0  0  0  0  0  0
    4.1556    2.3434    0.0000 C   0  0  0  0  0  0  0  0  0  0  0  0
   -7.7524    2.2276    0.0000 C   0  0  0  0  0  0  0  0  0  0  0  0
    7.4525   -2.9905    0.0000 C   0  0  0  0  0  0  0  0  0  0  0  0
    4.7549   -1.2263    0.0000 H   0  0  0  0  0  0  0  0  0  0  0  0
    2.2751   -0.0819    0.0000 H   0  0  0  0  0  0  0  0  0  0  0  0
    5.4633   -1.3896    0.0000 H   0  0  0  0  0  0  0  0  0  0  0  0
    4.6936    1.0354    0.0000 H   0  0  0  0  0  0  0  0  0  0  0  0
    3.3517   -0.4906    0.0000 H   0  0  0  0  0  0  0  0  0  0  0  0
  2  6  1  0  0  0  0
  3  1  1  0  0  0  0
  4  2  1  0  0  0  0
  5  1  1  0  0  0  0
  6 21  1  0  0  0  0
  7 11  1  0  0  0  0
  8  3  2  0  0  0  0
  9  6  1  0  0  0  0
 10  3  1  0  0  0  0
 11  9  1  0  0  0  0
 12  5  2  0  0  0  0
 13 12  1  0  0  0  0
 14  2  1  0  0  0  0
  4 15  1  0  0  0  0
 16  8  1  0  0  0  0
 17 10  2  0  0  0  0
 18 17  1  0  0  0  0
 19  7  1  0  0  0  0
 20 10  1  0  0  0  0
 21 41  1  0  0  0  0
 22  5  1  0  0  0  0
 23 14  1  0  0  0  0
 24 15  1  0  0  0  0
 25 19  1  0  0  0  0
 26 20  1  0  0  0  0
 27  1  2  0  0  0  0
 28 30  1  0  0  0  0
 29 32  1  0  0  0  0
 30 18  1  0  0  0  0
 31 11  1  0  0  0  0
 32 31  1  0  0  0  0
 33 26  2  0  0  0  0
 34 25  2  0  0  0  0
 35 23  2  0  0  0  0
 36 24  2  0  0  0  0
 37 28  2  0  0  0  0
 38 29  2  0  0  0  0
 39 22  2  0  0  0  0
 40 22  1  0  0  0  0
 41 42  1  0  0  0  0
 42 40  2  0  0  0  0
 43 39  1  0  0  0  0
 44 26  1  0  0  0  0
 45 24  1  0  0  0  0
 46 25  1  0  0  0  0
 47 23  1  0  0  0  0
 48 28  1  0  0  0  0
 49 29  1  0  0  0  0
 11 50  1  0  0  0  0
  6 51  1  0  0  0  0
  7 52  1  0  0  0  0
 53  4  1  0  0  0  0
  2 54  1  0  0  0  0
  8 13  1  0  0  0  0
 41 43  2  0  0  0  0
 18 16  2  0  0  0  0
  4  7  1  0  0  0  0
M  END
>  <IDNUMBER> (0831-0931)
0831-0931

>  <available> (0831-0931)
141

>  <H_acceptor> (0831-0931)
16

>  <H_donor> (0831-0931)
0

>  <B_rotN> (0831-0931)
16

>  <N_O> (0831-0931)
16

>  <logP> (0831-0931)
1.75

>  <logD> (0831-0931)
0.37

>  <logSw> (0831-0931)
-5.02

>  <PSA> (0831-0931)
202.56

>  <Chiral_centers> (0831-0931)
5

>  <Name> (0831-0931)
[3,4,5-tris(acetyloxy)-6-{4-[5,7-bis(acetyloxy)-4-oxo-4H-chromen-3-yl]phenoxy}oxan-2-yl]methyl acetate

>  <Smile> (0831-0931)
CC(OCC1C(C(C(C(Oc2ccc(C3C(=O)c4c(OC=3)cc(cc4OC(=O)C)OC(=O)C)cc2)O1)OC(=O)C)OC(=O)C)OC(=O)C)=O

>  <Collection> (0831-0931)
DC

>  <InChI Key> (0831-0931)
QINULWUIRTUVTD-UHFFFAOYSA-N

>  <PERCENTSP3> (0831-0931)
36.4

$$$$

  -ISIS-  -- StrEd -- 

 38 42  0  0  0  0  0  0  0  0999 V2000
    2.7034   -0.4437    0.0000 C   0  0  0  0  0  0  0  0  0  0  0  0
    0.1696   -0.9307    0.0000 C   0  0  0  0  0  0  0  0  0  0  0  0
    2.7034    0.5302    0.0000 C   0  0  0  0  0  0  0  0  0  0  0  0
    0.1696   -1.9110    0.0000 C   0  0  0  0  0  0  0  0  0  0  0  0
    1.0327   -0.4437    0.0000 C   0  0  2  0  0  0  0  0  0  0  0  0
    1.8465   -0.9307    0.0000 C   0  0  1  0  0  0  0  0  0  0  0  0
    3.9303    1.7756    0.0000 C   0  0  0  0  0  0  0  0  0  0  0  0
    3.6036    0.7828    0.0000 C   0  0  0  0  0  0  0  0  0  0  0  0
    3.2953    2.5896    0.0000 C   0  0  0  0  0  0  0  0  0  0  0  0
    3.9179    3.4773    0.0000 C   0  0  0  0  0  0  0  0  0  0  0  0
    3.6036   -0.7397    0.0000 C   0  0  0  0  0  0  0  0  0  0  0  0
    1.8465    1.0049    0.0000 C   0  0  0  0  0  0  0  0  0  0  0  0
   -0.6997   -2.3672    0.0000 C   0  0  0  0  0  0  0  0  0  0  0  0
   -0.6997   -0.4437    0.0000 C   0  0  0  0  0  0  0  0  0  0  0  0
    1.0327    0.5302    0.0000 C   0  0  0  0  0  0  0  0  0  0  0  0
   -3.2151   -2.0099    0.0000 C   0  0  0  0  0  0  0  0  0  0  0  0
    4.9228    3.1382    0.0000 O   0  0  0  0  0  0  0  0  0  0  0  0
    4.1522    0.0433    0.0000 C   0  0  0  0  0  0  0  0  0  0  0  0
    1.8465   -1.9110    0.0000 C   0  0  0  0  0  0  0  0  0  0  0  0
    1.0327   -2.3672    0.0000 C   0  0  0  0  0  0  0  0  0  0  0  0
    4.9352    2.1147    0.0000 C   0  0  0  0  0  0  0  0  0  0  0  0
   -4.0473   -3.5203    0.0000 N   0  3  0  0  0  0  0  0  0  0  0  0
    0.1696    0.0433    0.0000 C   0  0  0  0  0  0  0  0  0  0  0  0
   -2.3151   -2.4537    0.0000 O   0  0  0  0  0  0  0  0  0  0  0  0
   -1.4827   -1.9110    0.0000 C   0  0  0  0  0  0  0  0  0  0  0  0
   -4.0598   -2.5277    0.0000 C   0  0  0  0  0  0  0  0  0  0  0  0
   -3.2151   -1.0049    0.0000 O   0  0  0  0  0  0  0  0  0  0  0  0
    3.5729    4.5004    0.0000 O   0  0  0  0  0  0  0  0  0  0  0  0
    2.6849   -1.7016    0.0000 O   0  0  0  0  0  0  0  0  0  0  0  0
    0.1696   -3.1687    0.0000 O   0  0  0  0  0  0  0  0  0  0  0  0
   -0.6997    0.5302    0.0000 O   0  0  0  0  0  0  0  0  0  0  0  0
   -1.4827   -0.9307    0.0000 C   0  0  0  0  0  0  0  0  0  0  0  0
    2.6849    1.7017    0.0000 C   0  0  0  0  0  0  0  0  0  0  0  0
   -3.1844   -3.9085    0.0000 C   0  0  0  0  0  0  0  0  0  0  0  0
   -3.9859   -4.5004    0.0000 C   0  0  0  0  0  0  0  0  0  0  0  0
   -4.9352   -4.0689    0.0000 C   0  0  0  0  0  0  0  0  0  0  0  0
    1.0327   -1.3748    0.0000 H   0  0  0  0  0  0  0  0  0  0  0  0
    1.8465   -0.0739    0.0000 H   0  0  0  0  0  0  0  0  0  0  0  0
  2  5  1  0  0  0  0
  3  1  1  0  0  0  0
  4 20  1  0  0  0  0
  5  6  1  0  0  0  0
  6  1  1  0  0  0  0
  8  7  1  0  0  0  0
  8  3  1  0  0  0  0
  9  7  2  0  0  0  0
 10  9  1  0  0  0  0
 11  1  1  0  0  0  0
 12  3  1  0  0  0  0
 13  4  1  0  0  0  0
 14  2  1  0  0  0  0
 15  5  1  0  0  0  0
 16 24  1  0  0  0  0
 17 21  1  0  0  0  0
 18 11  1  0  0  0  0
 19  6  1  0  0  0  0
 20 19  1  0  0  0  0
 21  7  1  0  0  0  0
 22 26  1  0  0  0  0
  2 23  1  0  0  0  0
 25 24  1  0  0  0  0
 25 13  1  0  0  0  0
 26 16  1  0  0  0  0
 27 16  2  0  0  0  0
 28 10  2  0  0  0  0
  1 29  1  0  0  0  0
  4 30  1  0  0  0  0
 31 23  2  0  0  0  0
 32 14  1  0  0  0  0
  3 33  1  0  0  0  0
 34 22  1  0  0  0  0
 35 22  1  0  0  0  0
 36 22  1  0  0  0  0
  5 37  1  6  0  0  0
  6 38  1  1  0  0  0
 18  8  1  0  0  0  0
 12 15  1  0  0  0  0
  2  4  1  0  0  0  0
 32 25  1  0  0  0  0
 10 17  1  0  0  0  0
M  CHG  1  22   1
M  END
>  <IDNUMBER> (N008-0011)
N008-0011

>  <available> (N008-0011)
296

>  <Saltdata> (N008-0011)
Br-

>  <H_acceptor> (N008-0011)
7

>  <H_donor> (N008-0011)
2

>  <B_rotN> (N008-0011)
8

>  <N_O> (N008-0011)
8

>  <logP> (N008-0011)
0.26

>  <logD> (N008-0011)
1.48

>  <logSw> (N008-0011)
-2.13

>  <PSA> (N008-0011)
110.13

>  <Chiral_centers> (N008-0011)
8

>  <Name> (N008-0011)
(2-{[9a-formyl-3a,5a-dihydroxy-11a-methyl-1-(5-oxo-2,5-dihydrofuran-3-yl)-hexadecahydro-1H-cyclopenta[a]phenanthren-7-yl]oxy}-2-oxoethyl)trimethylazanium

>  <Smile> (N008-0011)
C[N+](CC(OC1CC2(C(C3C(C4(O)CCC(C4(C)CC3)C3=CC(OC3)=O)CC2)(CC1)C=O)O)=O)(C)C

>  <Collection> (N008-0011)
DC

>  <InChI Key> (N008-0011)
KFPMAYKBBLAZFX-RGBGGRCBSA-N

>  <PERCENTSP3> (N008-0011)
82.1

$$$$

  -ISIS-  -- StrEd -- 

 22 24  0  0  0  0  0  0  0  0999 V2000
    2.1454    2.2536    0.0000 N   0  3  0  0  0  0  0  0  0  0  0  0
   -1.2882   -1.7647    0.0000 N   0  3  0  0  0  0  0  0  0  0  0  0
    2.1555    1.2503    0.0000 C   0  0  0  0  0  0  0  0  0  0  0  0
   -1.2931   -0.7613    0.0000 C   0  0  0  0  0  0  0  0  0  0  0  0
    3.0075    2.7579    0.0000 O   0  5  0  0  0  0  0  0  0  0  0  0
    0.4312    1.2453    0.0000 N   0  0  0  0  0  0  0  0  0  0  0  0
    1.2983    0.7460    0.0000 C   0  0  0  0  0  0  0  0  0  0  0  0
   -0.4260   -0.2571    0.0000 C   0  0  0  0  0  0  0  0  0  0  0  0
    1.2782    2.7477    0.0000 O   0  0  0  0  0  0  0  0  0  0  0  0
   -0.4310    0.7460    0.0000 C   0  0  0  0  0  0  0  0  0  0  0  0
   -0.4260   -2.2640    0.0000 C   0  0  0  0  0  0  0  0  0  0  0  0
   -1.2931   -2.7579    0.0000 C   0  0  0  0  0  0  0  0  0  0  0  0
   -2.1605   -2.2640    0.0000 C   0  0  0  0  0  0  0  0  0  0  0  0
    3.0177    0.7562    0.0000 C   0  0  0  0  0  0  0  0  0  0  0  0
    0.4413   -1.7597    0.0000 C   0  0  0  0  0  0  0  0  0  0  0  0
    0.4362   -0.7564    0.0000 C   0  0  0  0  0  0  0  0  0  0  0  0
   -2.1605   -0.2521    0.0000 C   0  0  0  0  0  0  0  0  0  0  0  0
    1.2933   -0.2521    0.0000 C   0  0  0  0  0  0  0  0  0  0  0  0
   -3.0226   -1.7647    0.0000 C   0  0  0  0  0  0  0  0  0  0  0  0
    3.0226   -0.2472    0.0000 C   0  0  0  0  0  0  0  0  0  0  0  0
   -3.0226   -0.7613    0.0000 C   0  0  0  0  0  0  0  0  0  0  0  0
    2.1605   -0.7514    0.0000 C   0  0  0  0  0  0  0  0  0  0  0  0
  4  2  1  0  0  0  0
  3  1  1  0  0  0  0
  4  8  1  0  0  0  0
  5  1  1  0  0  0  0
  6  7  1  0  0  0  0
  7  3  1  0  0  0  0
  8 10  1  0  0  0  0
  9  1  2  0  0  0  0
 10  6  1  0  0  0  0
 11 15  1  0  0  0  0
 12  2  1  0  0  0  0
 13  2  1  0  0  0  0
 14  3  2  0  0  0  0
 15 16  1  0  0  0  0
 16  8  1  0  0  0  0
 17  4  1  0  0  0  0
 18  7  2  0  0  0  0
 19 21  1  0  0  0  0
 20 14  1  0  0  0  0
 21 17  1  0  0  0  0
 22 20  2  0  0  0  0
 18 22  1  0  0  0  0
  2 11  1  0  0  0  0
 13 19  1  0  0  0  0
M  CHG  3   1   1   2   1   5  -1
M  END
>  <IDNUMBER> (N085-0085)
N085-0085

>  <available> (N085-0085)
19

>  <Saltdata> (N085-0085)
I-

>  <H_acceptor> (N085-0085)
2

>  <H_donor> (N085-0085)
1

>  <B_rotN> (N085-0085)
3

>  <N_O> (N085-0085)
5

>  <logP> (N085-0085)
1.54

>  <logD> (N085-0085)
2.83

>  <logSw> (N085-0085)
-5.83

>  <PSA> (N085-0085)
57.85

>  <Chiral_centers> (N085-0085)
2

>  <Name> (N085-0085)
5-methyl-1-{[(2-nitrophenyl)amino]methyl}-decahydroquinolizin-5-ium

>  <Smile> (N085-0085)
c1cc(c([N+](=O)[O-])cc1)NCC1C2[N+](CCC1)(C)CCCC2

>  <Collection> (N085-0085)
DC

>  <InChI Key> (N085-0085)
SDYOTJCUHWNRJA-UHFFFAOYSA-N

>  <PERCENTSP3> (N085-0085)
64.7

$$$$

  -ISIS-  -- StrEd -- 

 31 35  0  0  0  0  0  0  0  0999 V2000
    1.2023   -0.3118    0.0000 C   0  0  2  0  0  0  0  0  0  0  0  0
    0.3225   -0.8543    0.0000 C   0  0  0  0  0  0  0  0  0  0  0  0
   -0.5403   -0.3118    0.0000 C   0  0  0  0  0  0  0  0  0  0  0  0
    1.2023    0.6106    0.0000 C   0  0  2  0  0  0  0  0  0  0  0  0
   -1.3988   -0.8543    0.0000 C   0  0  2  0  0  0  0  0  0  0  0  0
   -1.3988   -1.8110    0.0000 C   0  0  0  0  0  0  0  0  0  0  0  0
    2.0224    1.0592    0.0000 C   0  0  0  0  0  0  0  0  0  0  0  0
   -2.2616   -2.3107    0.0000 C   0  0  1  0  0  0  0  0  0  0  0  0
    2.8552    0.6106    0.0000 C   0  0  0  0  0  0  0  0  0  0  0  0
    0.3225    1.1318    0.0000 C   0  0  0  0  0  0  0  0  0  0  0  0
   -0.5403    0.6321    0.0000 C   0  0  0  0  0  0  0  0  0  0  0  0
    0.3225   -1.8110    0.0000 C   0  0  0  0  0  0  0  0  0  0  0  0
    2.0224   -0.8543    0.0000 C   0  0  0  0  0  0  0  0  0  0  0  0
   -2.2616   -0.3118    0.0000 C   0  0  0  0  0  0  0  0  0  0  0  0
   -0.5403   -2.3107    0.0000 C   0  0  0  0  0  0  0  0  0  0  0  0
    2.0224    2.0671    0.0000 C   0  0  0  0  0  0  0  0  0  0  0  0
   -3.0304   -1.8110    0.0000 C   0  0  0  0  0  0  0  0  0  0  0  0
    2.8552   -0.3631    0.0000 C   0  0  0  0  0  0  0  0  0  0  0  0
    2.8552    2.5156    0.0000 C   0  0  2  0  0  0  0  0  0  0  0  0
    3.6924    1.0592    0.0000 C   0  0  0  0  0  0  0  0  0  0  0  0
   -3.0304   -0.8543    0.0000 C   0  0  0  0  0  0  0  0  0  0  0  0
    3.6924    2.0671    0.0000 C   0  0  0  0  0  0  0  0  0  0  0  0
    1.2023   -1.2643    0.0000 C   0  0  0  0  0  0  0  0  0  0  0  0
    1.2151    1.5332    0.0000 C   0  0  0  0  0  0  0  0  0  0  0  0
   -1.3988    0.3416    0.0000 C   0  0  0  0  0  0  0  0  0  0  0  0
   -1.8814   -3.1521    0.0000 C   0  0  0  0  0  0  0  0  0  0  0  0
   -2.8039   -3.1521    0.0000 C   0  0  0  0  0  0  0  0  0  0  0  0
   -4.0340   -2.3322    0.0000 O   0  0  0  0  0  0  0  0  0  0  0  0
    4.0340    0.1367    0.0000 C   0  0  0  0  0  0  0  0  0  0  0  0
    1.9498    3.1008    0.0000 C   0  0  0  0  0  0  0  0  0  0  0  0
    3.8375    3.1521    0.0000 C   0  0  0  0  0  0  0  0  0  0  0  0
  2  1  1  0  0  0  0
  3  2  2  0  0  0  0
  4  1  1  0  0  0  0
  5  3  1  0  0  0  0
  6 15  1  0  0  0  0
  7  4  1  0  0  0  0
  8  6  1  0  0  0  0
  9 18  1  0  0  0  0
 10  4  1  0  0  0  0
 11 10  1  0  0  0  0
 12  2  1  0  0  0  0
 13  1  1  0  0  0  0
 14  5  1  0  0  0  0
 15 12  1  0  0  0  0
 16  7  1  0  0  0  0
 17  8  1  0  0  0  0
 18 13  1  0  0  0  0
 19 16  1  0  0  0  0
 20  9  1  0  0  0  0
 21 14  1  0  0  0  0
 22 20  1  0  0  0  0
  1 23  1  1  0  0  0
  4 24  1  6  0  0  0
  5 25  1  1  0  0  0
  8 26  1  6  0  0  0
  8 27  1  1  0  0  0
 28 17  1  0  0  0  0
 29  9  1  0  0  0  0
 30 19  1  0  0  0  0
 19 31  1  6  0  0  0
  9  7  1  0  0  0  0
  3 11  1  0  0  0  0
  5  6  1  0  0  0  0
 22 19  1  0  0  0  0
 21 17  1  0  0  0  0
M  END
>  <IDNUMBER> (N039-0033)
N039-0033

>  <available> (N039-0033)
9

>  <H_acceptor> (N039-0033)
1

>  <H_donor> (N039-0033)
1

>  <B_rotN> (N039-0033)
1

>  <N_O> (N039-0033)
1

>  <logP> (N039-0033)
10.45

>  <logD> (N039-0033)
10.45

>  <logSw> (N039-0033)
-7.43

>  <PSA> (N039-0033)
20.23

>  <Chiral_centers> (N039-0033)
7

>  <Name> (N039-0033)
(6bS,12bS,14bS)-4,4,6b,8a,11,11,12b,14b-octamethyl-1,2,3,4,4a,5,6,6b,7,8,8a,9,10,11,12,12a,12b,13,14,14b-icosahydro-3-picenol

>  <Smile> (N039-0033)
[C@]12(/C/3=C(/[C@@]4(C([C@@](C(CC4)O)(C)C)CC3)C)\CC[C@]1(C1C(CC2)(CC[C@@](C1)(C)C)C)C)C

>  <Collection> (N039-0033)
DC

>  <InChI Key> (N039-0033)
MCSMMGJCXCBSKD-PLDFXDOJSA-N

>  <PERCENTSP3> (N039-0033)
93.333

$$$$

  -ISIS-  -- StrEd -- 

 33 37  0  0  0  0  0  0  0  0999 V2000
    0.3985   -0.6830    0.0000 C   0  0  0  0  0  0  0  0  0  0  0  0
   -0.4205   -0.2101    0.0000 C   0  0  0  0  0  0  0  0  0  0  0  0
    1.2304   -0.2101    0.0000 C   0  0  1  0  0  0  0  0  0  0  0  0
    0.3985    1.2173    0.0000 C   0  0  0  0  0  0  0  0  0  0  0  0
    0.7355    2.1544    0.0000 C   0  0  3  0  0  0  0  0  0  0  0  0
   -1.2391   -0.6830    0.0000 C   0  0  2  0  0  0  0  0  0  0  0  0
   -0.6744    1.8171    0.0000 C   0  0  0  0  0  0  0  0  0  0  0  0
    1.2304    0.7444    0.0000 C   0  0  1  0  0  0  0  0  0  0  0  0
   -1.2391   -1.6288    0.0000 C   0  0  0  0  0  0  0  0  0  0  0  0
   -2.0406   -2.1107    0.0000 C   0  0  2  0  0  0  0  0  0  0  0  0
   -0.4205    0.7444    0.0000 C   0  0  0  0  0  0  0  0  0  0  0  0
   -1.5326   -2.7630    0.0000 C   0  0  0  0  0  0  0  0  0  0  0  0
    0.3985   -1.6288    0.0000 C   0  0  0  0  0  0  0  0  0  0  0  0
    2.0405   -0.6830    0.0000 C   0  0  0  0  0  0  0  0  0  0  0  0
    2.0405    1.2173    0.0000 C   0  0  0  0  0  0  0  0  0  0  0  0
   -0.4205   -2.1107    0.0000 C   0  0  0  0  0  0  0  0  0  0  0  0
   -2.0711   -3.5949    0.0000 O   0  0  0  0  0  0  0  0  0  0  0  0
    0.9545    2.9513    0.0000 C   0  0  3  0  0  0  0  0  0  0  0  0
    2.8680   -0.2101    0.0000 C   0  0  0  0  0  0  0  0  0  0  0  0
    2.8680    0.7444    0.0000 C   0  0  0  0  0  0  0  0  0  0  0  0
    2.0405   -1.6288    0.0000 O   0  0  0  0  0  0  0  0  0  0  0  0
    2.0405    2.1630    0.0000 O   0  0  0  0  0  0  0  0  0  0  0  0
   -2.0406   -0.2101    0.0000 C   0  0  0  0  0  0  0  0  0  0  0  0
   -1.2523    0.2102    0.0000 C   0  0  0  0  0  0  0  0  0  0  0  0
   -0.5255   -2.7630    0.0000 O   0  0  0  0  0  0  0  0  0  0  0  0
   -2.8680   -1.6288    0.0000 C   0  0  0  0  0  0  0  0  0  0  0  0
   -2.6491   -2.7322    0.0000 C   0  0  0  0  0  0  0  0  0  0  0  0
   -2.8680   -0.6830    0.0000 C   0  0  0  0  0  0  0  0  0  0  0  0
    1.8609    3.0914    0.0000 C   0  0  0  0  0  0  0  0  0  0  0  0
    0.2846    3.6168    0.0000 C   0  0  0  0  0  0  0  0  0  0  0  0
   -0.0219   -3.6168    0.0000 C   0  0  0  0  0  0  0  0  0  0  0  0
    1.2391   -1.1341    0.0000 H   0  0  0  0  0  0  0  0  0  0  0  0
    1.2391    1.5851    0.0000 H   0  0  0  0  0  0  0  0  0  0  0  0
  2  1  1  0  0  0  0
  3  1  1  0  0  0  0
  4  5  1  0  0  0  0
  5  7  2  0  0  0  0
  6  2  1  0  0  0  0
  7  1  1  0  0  0  0
  8  3  1  0  0  0  0
  9 16  1  0  0  0  0
 10  9  1  0  0  0  0
 11  2  1  0  0  0  0
 10 12  1  6  0  0  0
 13  1  1  0  0  0  0
 14  3  1  0  0  0  0
 15  8  1  0  0  0  0
 16 13  1  0  0  0  0
 17 12  2  0  0  0  0
  5 18  1  4  0  0  0
 19 14  1  0  0  0  0
 20 19  1  0  0  0  0
 21 14  2  0  0  0  0
 22 15  2  0  0  0  0
 23  6  1  0  0  0  0
  6 24  1  1  0  0  0
 25 12  1  0  0  0  0
 26 10  1  0  0  0  0
 10 27  1  1  0  0  0
 28 23  1  0  0  0  0
 18 29  1  0  0  0  0
 30 18  1  0  0  0  0
 31 25  1  0  0  0  0
  3 32  1  6  0  0  0
  8 33  1  6  0  0  0
  8  4  1  0  0  0  0
  4 11  1  0  0  0  0
  6  9  1  0  0  0  0
 20 15  1  0  0  0  0
 28 26  1  0  0  0  0
M  END
>  <IDNUMBER> (N075-0014)
N075-0014

>  <available> (N075-0014)
117

>  <H_acceptor> (N075-0014)
4

>  <H_donor> (N075-0014)
0

>  <B_rotN> (N075-0014)
3

>  <N_O> (N075-0014)
4

>  <logP> (N075-0014)
4

>  <logD> (N075-0014)
4.5

>  <logSw> (N075-0014)
-7.4

>  <PSA> (N075-0014)
60.44

>  <Chiral_centers> (N075-0014)
8

>  <Name> (N075-0014)
methyl (5R,9R,13R,18R)-20-isopropyl-5,9-dimethyl-14,17-dioxopentacyclo[10.6.2.0~1,10~.0~4,9~.0~13,18~]icos-19-ene-5-carboxylate

>  <Smile> (N075-0014)
COC(C1(C2C(C3C4(CC2)C=C(C(C3)C2C4C(CCC2=O)=O)C(C)C)(C)CCC1)C)=O

>  <Collection> (N075-0014)
DC

>  <InChI Key> (N075-0014)
DCGMIQMNIOQACA-GBQWWDEHSA-N

>  <PERCENTSP3> (N075-0014)
81.5

$$$$

  -ISIS-  -- StrEd -- 

 32 36  0  0  0  0  0  0  0  0999 V2000
   -0.0326   -0.6696    0.0000 C   0  0  0  0  0  0  0  0  0  0  0  0
    0.7936   -0.1999    0.0000 C   0  0  0  0  0  0  0  0  0  0  0  0
   -0.8459   -0.1999    0.0000 C   0  0  0  0  0  0  0  0  0  0  0  0
    0.7936    0.7480    0.0000 C   0  0  0  0  0  0  0  0  0  0  0  0
   -0.0326    1.2176    0.0000 C   0  0  0  0  0  0  0  0  0  0  0  0
    0.3022    2.1482    0.0000 C   0  0  3  0  0  0  0  0  0  0  0  0
   -1.6590   -0.6696    0.0000 C   0  0  2  0  0  0  0  0  0  0  0  0
   -1.0980    1.8134    0.0000 C   0  0  0  0  0  0  0  0  0  0  0  0
    1.5981    1.2176    0.0000 C   0  0  0  0  0  0  0  0  0  0  0  0
    2.4201    0.7480    0.0000 C   0  0  0  0  0  0  0  0  0  0  0  0
   -1.6590   -1.6089    0.0000 C   0  0  0  0  0  0  0  0  0  0  0  0
    1.5981   -0.6696    0.0000 C   0  0  0  0  0  0  0  0  0  0  0  0
    2.4201   -0.1999    0.0000 C   0  0  0  0  0  0  0  0  0  0  0  0
   -2.4547   -2.0875    0.0000 C   0  0  2  0  0  0  0  0  0  0  0  0
   -0.8459    0.7480    0.0000 C   0  0  0  0  0  0  0  0  0  0  0  0
   -1.9504   -2.7353    0.0000 C   0  0  0  0  0  0  0  0  0  0  0  0
   -0.0326   -1.6089    0.0000 C   0  0  0  0  0  0  0  0  0  0  0  0
   -0.8459   -2.0875    0.0000 C   0  0  0  0  0  0  0  0  0  0  0  0
    1.5981    2.1569    0.0000 O   0  0  0  0  0  0  0  0  0  0  0  0
    1.5981   -1.6089    0.0000 O   0  0  0  0  0  0  0  0  0  0  0  0
   -2.4852   -3.5616    0.0000 O   0  0  0  0  0  0  0  0  0  0  0  0
    0.5197    2.9396    0.0000 C   0  0  3  0  0  0  0  0  0  0  0  0
    3.2766   -0.7001    0.0000 Cl  0  0  0  0  0  0  0  0  0  0  0  0
   -2.4547   -0.1999    0.0000 C   0  0  0  0  0  0  0  0  0  0  0  0
   -1.6720    0.2175    0.0000 C   0  0  0  0  0  0  0  0  0  0  0  0
   -0.9502   -2.7353    0.0000 O   0  0  0  0  0  0  0  0  0  0  0  0
   -3.2766   -1.6089    0.0000 C   0  0  0  0  0  0  0  0  0  0  0  0
   -3.0593   -2.7047    0.0000 C   0  0  0  0  0  0  0  0  0  0  0  0
   -3.2766   -0.6696    0.0000 C   0  0  0  0  0  0  0  0  0  0  0  0
   -0.1456    3.6006    0.0000 C   0  0  0  0  0  0  0  0  0  0  0  0
    1.4199    3.0789    0.0000 C   0  0  0  0  0  0  0  0  0  0  0  0
   -0.4501   -3.6006    0.0000 C   0  0  0  0  0  0  0  0  0  0  0  0
  2  1  1  0  0  0  0
  3  1  1  0  0  0  0
  4  2  1  0  0  0  0
  5  6  1  0  0  0  0
  6  8  2  0  0  0  0
  7  3  1  0  0  0  0
  8  1  1  0  0  0  0
  9  4  1  0  0  0  0
 10 13  2  0  0  0  0
 11 18  1  0  0  0  0
 12  2  1  0  0  0  0
 13 12  1  0  0  0  0
 14 11  1  0  0  0  0
 15  3  1  0  0  0  0
 14 16  1  6  0  0  0
 17  1  1  0  0  0  0
 18 17  1  0  0  0  0
 19  9  2  0  0  0  0
 20 12  2  0  0  0  0
 21 16  2  0  0  0  0
  6 22  1  4  0  0  0
 23 13  1  0  0  0  0
 24  7  1  0  0  0  0
  7 25  1  1  0  0  0
 26 16  1  0  0  0  0
 27 14  1  0  0  0  0
 14 28  1  1  0  0  0
 29 24  1  0  0  0  0
 22 30  1  0  0  0  0
 31 22  1  0  0  0  0
 32 26  1  0  0  0  0
  5 15  1  0  0  0  0
  7 11  1  0  0  0  0
  4  5  1  0  0  0  0
 29 27  1  0  0  0  0
 10  9  1  0  0  0  0
M  END
>  <IDNUMBER> (N075-0017)
N075-0017

>  <available> (N075-0017)
146

>  <H_acceptor> (N075-0017)
5

>  <H_donor> (N075-0017)
0

>  <B_rotN> (N075-0017)
3

>  <N_O> (N075-0017)
4

>  <logP> (N075-0017)
4.66

>  <logD> (N075-0017)
5.57

>  <logSw> (N075-0017)
-6.8

>  <PSA> (N075-0017)
60.44

>  <Chiral_centers> (N075-0017)
8

>  <Name> (N075-0017)
methyl (5R,9R)-16-chloro-20-isopropyl-5,9-dimethyl-14,17-dioxopentacyclo[10.6.2.0~1,10~.0~4,9~.0~13,18~]icosa-15,19-diene-5-carboxylate

>  <Smile> (N075-0017)
COC(C1(C2C(C3C4(CC2)C=C(C(C2C4C(C(=CC2=O)Cl)=O)C3)C(C)C)(C)CCC1)C)=O

>  <Collection> (N075-0017)
DC

>  <InChI Key> (N075-0017)
RBMXOEUCEBPGAY-ZIIXBGRGSA-N

>  <PERCENTSP3> (N075-0017)
74.1

$$$$

  -ISIS-  -- StrEd -- 

 43 48  0  0  0  0  0  0  0  0999 V2000
   -0.9052   -1.1971    0.0000 C   0  0  2  0  0  0  0  0  0  0  0  0
    1.6799   -0.6939    0.0000 C   0  0  1  0  0  0  0  0  0  0  0  0
    0.8349   -1.1971    0.0000 C   0  0  1  0  0  0  0  0  0  0  0  0
    3.4253    0.3471    0.0000 C   0  0  0  0  0  0  0  0  0  0  0  0
   -2.6357   -1.1971    0.0000 C   0  0  0  0  0  0  0  0  0  0  0  0
    2.5402    0.8550    0.0000 C   0  0  0  0  0  0  0  0  0  0  0  0
    1.6799    0.3471    0.0000 C   0  0  0  0  0  0  0  0  0  0  0  0
   -0.0303   -0.6939    0.0000 C   0  0  0  0  0  0  0  0  0  0  0  0
   -0.9052   -2.1477    0.0000 C   0  0  0  0  0  0  0  0  0  0  0  0
   -1.7704   -2.6859    0.0000 C   0  0  1  0  0  0  0  0  0  0  0  0
   -2.6357   -2.1477    0.0000 C   0  0  0  0  0  0  0  0  0  0  0  0
   -1.7704   -0.6939    0.0000 C   0  0  0  0  0  0  0  0  0  0  0  0
   -3.4957   -0.7443    0.0000 C   0  0  0  0  0  0  0  0  0  0  0  0
    2.7815    1.8612    0.0000 C   0  0  1  0  0  0  0  0  0  0  0  0
    4.3207   -0.1912    0.0000 C   0  0  0  0  0  0  0  0  0  0  0  0
   -3.4957    0.2413    0.0000 C   0  0  0  0  0  0  0  0  0  0  0  0
    2.5402   -1.1418    0.0000 C   0  0  0  0  0  0  0  0  0  0  0  0
    0.8349   -2.1477    0.0000 C   0  0  0  0  0  0  0  0  0  0  0  0
    3.4253   -0.6589    0.0000 C   0  0  0  0  0  0  0  0  0  0  0  0
    4.1797    1.0362    0.0000 C   0  0  0  0  0  0  0  0  0  0  0  0
    0.8048    0.8351    0.0000 C   0  0  0  0  0  0  0  0  0  0  0  0
   -0.0303   -2.6506    0.0000 C   0  0  0  0  0  0  0  0  0  0  0  0
   -0.0303    0.3168    0.0000 C   0  0  0  0  0  0  0  0  0  0  0  0
   -4.3408    0.7296    0.0000 C   0  0  0  0  0  0  0  0  0  0  0  0
    3.7673    1.9516    0.0000 C   0  0  0  0  0  0  0  0  0  0  0  0
    2.1276    2.5953    0.0000 C   0  0  0  0  0  0  0  0  0  0  0  0
   -3.6616   -2.6859    0.0000 O   0  0  0  0  0  0  0  0  0  0  0  0
    4.3358   -1.1822    0.0000 O   0  0  0  0  0  0  0  0  0  0  0  0
   -4.3408    1.7303    0.0000 C   0  0  0  0  0  0  0  0  0  0  0  0
    2.4747    3.5310    0.0000 C   0  0  0  0  0  0  0  0  0  0  0  0
   -0.9052   -0.1912    0.0000 C   0  0  0  0  0  0  0  0  0  0  0  0
    1.6799   -1.6449    0.0000 C   0  0  0  0  0  0  0  0  0  0  0  0
    0.8349   -0.2967    0.0000 C   0  0  0  0  0  0  0  0  0  0  0  0
    5.1857    0.2967    0.0000 O   0  0  0  0  0  0  0  0  0  0  0  0
   -1.2473   -3.5310    0.0000 C   0  0  0  0  0  0  0  0  0  0  0  0
   -2.7261   -3.2994    0.0000 C   0  0  0  0  0  0  0  0  0  0  0  0
   -5.1857    0.2061    0.0000 O   0  0  0  0  0  0  0  0  0  0  0  0
   -2.6357    0.7443    0.0000 C   0  0  0  0  0  0  0  0  0  0  0  0
   -2.6357    1.7554    0.0000 C   0  0  0  0  0  0  0  0  0  0  0  0
    1.1618    2.4345    0.0000 C   0  0  0  0  0  0  0  0  0  0  0  0
   -3.4555    2.2333    0.0000 C   0  0  0  0  0  0  0  0  0  0  0  0
    5.1857    1.2827    0.0000 C   0  0  0  0  0  0  0  0  0  0  0  0
   -5.1658   -0.7847    0.0000 C   0  0  0  0  0  0  0  0  0  0  0  0
  2  3  1  0  0  0  0
  8  3  1  0  0  0  0
  6  4  1  0  0  0  0
  5 12  1  0  0  0  0
  7  6  1  0  0  0  0
  7 21  1  0  0  0  0
  8  1  1  0  0  0  0
  9  1  1  0  0  0  0
 10  9  1  0  0  0  0
 11  5  1  0  0  0  0
 12  1  1  0  0  0  0
 13  5  2  0  0  0  0
 14  6  1  0  0  0  0
  4 15  1  0  0  0  0
 16 13  1  0  0  0  0
 17  2  1  0  0  0  0
 18 22  1  0  0  0  0
 19 17  1  0  0  0  0
 20  4  1  0  0  0  0
 21 23  1  0  0  0  0
 22  9  1  0  0  0  0
 23  8  1  0  0  0  0
 24 16  1  0  0  0  0
 25 14  1  0  0  0  0
 14 26  1  6  0  0  0
 27 11  2  0  0  0  0
 28 15  2  0  0  0  0
 29 24  2  0  0  0  0
 30 26  2  0  0  0  0
  1 31  1  1  0  0  0
  2 32  1  6  0  0  0
  3 33  1  1  0  0  0
 34 15  1  0  0  0  0
 10 35  1  6  0  0  0
 10 36  1  1  0  0  0
 37 24  1  0  0  0  0
 38 16  2  0  0  0  0
 39 38  1  0  0  0  0
 40 26  1  0  0  0  0
 41 39  2  0  0  0  0
 42 34  1  0  0  0  0
 43 37  1  0  0  0  0
 11 10  1  0  0  0  0
  3 18  1  0  0  0  0
  2  7  1  0  0  0  0
 19  4  1  0  0  0  0
 29 41  1  0  0  0  0
 25 20  1  0  0  0  0
M  END
>  <IDNUMBER> (N064-0049)
N064-0049

>  <available> (N064-0049)
60

>  <H_acceptor> (N064-0049)
4

>  <H_donor> (N064-0049)
0

>  <B_rotN> (N064-0049)
5

>  <N_O> (N064-0049)
4

>  <logP> (N064-0049)
8.628

>  <logD> (N064-0049)
10.343

>  <logSw> (N064-0049)
-8.9

>  <PSA> (N064-0049)
52.6

>  <Chiral_centers> (N064-0049)
9

>  <Name> (N064-0049)
methyl (10E)-10-[(2-methoxyphenyl)methylidene]-5a,5b,8,8,11a-pentamethyl-9-oxo-1-(prop-1-en-2-yl)-icosahydro-1H-cyclopenta[a]chrysene-3a-carboxylate

>  <Smile> (N064-0049)
[C@]12(C3[C@]([C@]4(C(C5C(C(=O)OC)(CC4)CC[C@H]5C(=C)C)CC3)C)(CCC1[C@@](C(/C(/C2)=C/c1c(OC)cccc1)=O)(C)C)C)C

>  <Collection> (N064-0049)
DC

>  <InChI Key> (N064-0049)
CDQMFMRWVGTBOW-WKCKFLCYSA-N

>  <PERCENTSP3> (N064-0049)
69.2

$$$$

  -ISIS-  -- StrEd -- 

 23 26  0  0  0  0  0  0  0  0999 V2000
    0.1893    0.9655    0.0000 N   0  0  0  0  0  0  0  0  0  0  0  0
    1.0968    0.5622    0.0000 C   0  0  0  0  0  0  0  0  0  0  0  0
    0.2899    1.9588    0.0000 C   0  0  0  0  0  0  0  0  0  0  0  0
    1.2632    2.1706    0.0000 C   0  0  0  0  0  0  0  0  0  0  0  0
    1.7672    1.3034    0.0000 C   0  0  0  0  0  0  0  0  0  0  0  0
   -1.5302   -2.0496    0.0000 N   0  3  0  0  0  0  0  0  0  0  0  0
   -0.6731    0.4613    0.0000 C   0  0  0  0  0  0  0  0  0  0  0  0
   -0.6681   -0.5420    0.0000 C   0  0  0  0  0  0  0  0  0  0  0  0
   -1.5353   -1.0411    0.0000 C   0  0  0  0  0  0  0  0  0  0  0  0
   -0.4564    2.6243    0.0000 O   0  0  0  0  0  0  0  0  0  0  0  0
    1.3085   -0.4160    0.0000 O   0  0  0  0  0  0  0  0  0  0  0  0
   -0.6681   -2.5487    0.0000 C   0  0  0  0  0  0  0  0  0  0  0  0
   -1.5353   -3.0379    0.0000 C   0  0  0  0  0  0  0  0  0  0  0  0
   -2.4025   -2.5487    0.0000 C   0  0  0  0  0  0  0  0  0  0  0  0
    2.7656    1.3034    0.0000 C   0  0  0  0  0  0  0  0  0  0  0  0
    1.7571    3.0379    0.0000 C   0  0  0  0  0  0  0  0  0  0  0  0
    0.1941   -1.0411    0.0000 C   0  0  0  0  0  0  0  0  0  0  0  0
    0.1994   -2.0445    0.0000 C   0  0  0  0  0  0  0  0  0  0  0  0
   -2.4025   -0.5420    0.0000 C   0  0  0  0  0  0  0  0  0  0  0  0
   -3.2647   -2.0496    0.0000 C   0  0  0  0  0  0  0  0  0  0  0  0
    2.7607    3.0379    0.0000 C   0  0  0  0  0  0  0  0  0  0  0  0
    3.2647    2.1706    0.0000 C   0  0  0  0  0  0  0  0  0  0  0  0
   -3.2647   -1.0411    0.0000 C   0  0  0  0  0  0  0  0  0  0  0  0
  2  1  1  0  0  0  0
  3  1  1  0  0  0  0
  4  3  1  0  0  0  0
  5  2  1  0  0  0  0
  9  6  1  0  0  0  0
  7  1  1  0  0  0  0
  8  7  1  0  0  0  0
  9  8  1  0  0  0  0
 10  3  2  0  0  0  0
 11  2  2  0  0  0  0
 12 18  1  0  0  0  0
 13  6  1  0  0  0  0
 14  6  1  0  0  0  0
 15  5  2  0  0  0  0
 16  4  2  0  0  0  0
 17  8  1  0  0  0  0
 18 17  1  0  0  0  0
 19  9  1  0  0  0  0
 20 23  1  0  0  0  0
 21 16  1  0  0  0  0
 22 15  1  0  0  0  0
 23 19  1  0  0  0  0
  4  5  1  0  0  0  0
 22 21  2  0  0  0  0
  6 12  1  0  0  0  0
 20 14  1  0  0  0  0
M  CHG  1   6   1
M  END
>  <IDNUMBER> (N085-0027)
N085-0027

>  <available> (N085-0027)
149

>  <Saltdata> (N085-0027)
I-

>  <H_acceptor> (N085-0027)
2

>  <H_donor> (N085-0027)
0

>  <B_rotN> (N085-0027)
2

>  <N_O> (N085-0027)
4

>  <logP> (N085-0027)
1.67

>  <logD> (N085-0027)
-0.76

>  <logSw> (N085-0027)
-5.67

>  <PSA> (N085-0027)
37.38

>  <Chiral_centers> (N085-0027)
2

>  <Name> (N085-0027)
1-[(1,3-dioxo-2,3-dihydro-1H-isoindol-2-yl)methyl]-5-methyl-decahydroquinolizin-5-ium

>  <Smile> (N085-0027)
C1CC2[N+](C)(CCCC2CN2C(c3c(C2=O)cccc3)=O)CC1

>  <Collection> (N085-0027)
DC

>  <InChI Key> (N085-0027)
UMWVQFMDELFMHV-UHFFFAOYSA-N

>  <PERCENTSP3> (N085-0027)
57.9

$$$$

  -ISIS-  -- StrEd -- 

 22 24  0  0  0  0  0  0  0  0999 V2000
   -1.7197   -1.7600    0.0000 N   0  3  0  0  0  0  0  0  0  0  0  0
    0.8674    0.7513    0.0000 C   0  0  0  0  0  0  0  0  0  0  0  0
   -1.7247   -0.7516    0.0000 C   0  0  0  0  0  0  0  0  0  0  0  0
    1.7298    1.2507    0.0000 C   0  0  0  0  0  0  0  0  0  0  0  0
   -0.8573   -0.2521    0.0000 C   0  0  0  0  0  0  0  0  0  0  0  0
    0.0000    1.2507    0.0000 O   0  0  0  0  0  0  0  0  0  0  0  0
   -0.8624    0.7513    0.0000 C   0  0  0  0  0  0  0  0  0  0  0  0
    0.8674   -0.2471    0.0000 O   0  0  0  0  0  0  0  0  0  0  0  0
    2.5971    0.7513    0.0000 C   0  0  0  0  0  0  0  0  0  0  0  0
   -0.8573   -2.2593    0.0000 C   0  0  0  0  0  0  0  0  0  0  0  0
   -1.7247   -2.7485    0.0000 C   0  0  0  0  0  0  0  0  0  0  0  0
   -2.5922   -2.2593    0.0000 C   0  0  0  0  0  0  0  0  0  0  0  0
    0.0101   -1.7551    0.0000 C   0  0  0  0  0  0  0  0  0  0  0  0
    0.0050   -0.7516    0.0000 C   0  0  0  0  0  0  0  0  0  0  0  0
   -2.5922   -0.2521    0.0000 C   0  0  0  0  0  0  0  0  0  0  0  0
    1.7298    2.2491    0.0000 C   0  0  0  0  0  0  0  0  0  0  0  0
    2.5971   -0.2471    0.0000 C   0  0  0  0  0  0  0  0  0  0  0  0
    3.4595    1.2507    0.0000 C   0  0  0  0  0  0  0  0  0  0  0  0
   -3.4595   -1.7600    0.0000 C   0  0  0  0  0  0  0  0  0  0  0  0
    2.5871    2.7485    0.0000 C   0  0  0  0  0  0  0  0  0  0  0  0
   -3.4595   -0.7516    0.0000 C   0  0  0  0  0  0  0  0  0  0  0  0
    3.4595    2.2491    0.0000 C   0  0  0  0  0  0  0  0  0  0  0  0
  2  6  1  0  0  0  0
  3  1  1  0  0  0  0
  4  2  1  0  0  0  0
  5  3  1  0  0  0  0
  6  7  1  0  0  0  0
  5  7  1  0  0  0  0
  8  2  2  0  0  0  0
  9  4  2  0  0  0  0
 10  1  1  0  0  0  0
 11  1  1  0  0  0  0
 12  1  1  0  0  0  0
 13 10  1  0  0  0  0
 14 13  1  0  0  0  0
 15  3  1  0  0  0  0
 16  4  1  0  0  0  0
 17  9  1  0  0  0  0
 18  9  1  0  0  0  0
 19 12  1  0  0  0  0
 20 16  2  0  0  0  0
 21 19  1  0  0  0  0
 22 20  1  0  0  0  0
 21 15  1  0  0  0  0
 14  5  1  0  0  0  0
 18 22  2  0  0  0  0
M  CHG  1   1   1
M  END
>  <IDNUMBER> (N085-0052)
N085-0052

>  <available> (N085-0052)
79

>  <Saltdata> (N085-0052)
I-

>  <H_acceptor> (N085-0052)
2

>  <H_donor> (N085-0052)
0

>  <B_rotN> (N085-0052)
4

>  <N_O> (N085-0052)
3

>  <logP> (N085-0052)
2.46

>  <logD> (N085-0052)
1.97

>  <logSw> (N085-0052)
-3.86

>  <PSA> (N085-0052)
26.3

>  <Chiral_centers> (N085-0052)
2

>  <Name> (N085-0052)
5-methyl-1-[(2-methylbenzoyloxy)methyl]-decahydroquinolizin-5-ium

>  <Smile> (N085-0052)
c1cc(c(C(OCC2C3[N+](CCCC3)(C)CCC2)=O)cc1)C

>  <Collection> (N085-0052)
DC

>  <InChI Key> (N085-0052)
ACPFNADODZHAHS-UHFFFAOYSA-N

>  <PERCENTSP3> (N085-0052)
63.2

$$$$

  -ISIS-  -- StrEd -- 

 20 22  0  0  0  0  0  0  0  0999 V2000
   -1.7365   -0.7577    0.0000 N   0  0  0  0  0  0  0  0  0  0  0  0
   -1.7365    0.2441    0.0000 C   0  0  0  0  0  0  0  0  0  0  0  0
    0.8608    0.7526    0.0000 N   0  0  0  0  0  0  0  0  0  0  0  0
   -0.8658    0.7526    0.0000 C   0  0  0  0  0  0  0  0  0  0  0  0
    1.7315    1.2509    0.0000 C   0  0  0  0  0  0  0  0  0  0  0  0
   -2.5974   -1.2509    0.0000 C   0  0  0  0  0  0  0  0  0  0  0  0
    0.0000    1.2509    0.0000 C   0  0  0  0  0  0  0  0  0  0  0  0
    0.0000   -0.7577    0.0000 C   0  0  0  0  0  0  0  0  0  0  0  0
   -0.8758   -1.2560    0.0000 C   0  0  0  0  0  0  0  0  0  0  0  0
    0.8608   -0.2441    0.0000 C   0  0  0  0  0  0  0  0  0  0  0  0
    0.0000    0.2390    0.0000 C   0  0  0  0  0  0  0  0  0  0  0  0
   -2.5974    0.7526    0.0000 C   0  0  0  0  0  0  0  0  0  0  0  0
    1.7365    2.2526    0.0000 S   0  0  0  0  0  0  0  0  0  0  0  0
   -3.4582    0.2441    0.0000 C   0  0  0  0  0  0  0  0  0  0  0  0
   -3.4582   -0.7577    0.0000 C   0  0  0  0  0  0  0  0  0  0  0  0
   -2.5974   -2.2526    0.0000 O   0  0  0  0  0  0  0  0  0  0  0  0
    2.5974    0.7526    0.0000 N   0  0  0  0  0  0  0  0  0  0  0  0
    3.4582   -0.7577    0.0000 C   0  0  0  0  0  0  0  0  0  0  0  0
    3.4531   -1.7543    0.0000 C   0  0  0  0  0  0  0  0  0  0  0  0
    2.5974   -0.2543    0.0000 C   0  0  0  0  0  0  0  0  0  0  0  0
  2  1  1  0  0  0  0
  3 10  1  0  0  0  0
  4  2  1  0  0  0  0
  5  3  1  0  0  0  0
  6  1  1  0  0  0  0
  7  4  1  0  0  0  0
  8  9  1  0  0  0  0
  9  1  1  0  0  0  0
 10  8  1  0  0  0  0
 11  8  1  0  0  0  0
 12  2  2  0  0  0  0
 13  5  2  0  0  0  0
 14 15  2  0  0  0  0
 15  6  1  0  0  0  0
 16  6  2  0  0  0  0
 17  5  1  0  0  0  0
 18 20  1  0  0  0  0
 19 18  2  0  0  0  0
 20 17  1  0  0  0  0
 11  4  1  0  0  0  0
 14 12  1  0  0  0  0
  7  3  1  0  0  0  0
M  END
>  <IDNUMBER> (N094-0001)
N094-0001

>  <available> (N094-0001)
16

>  <H_acceptor> (N094-0001)
2

>  <H_donor> (N094-0001)
1

>  <B_rotN> (N094-0001)
4

>  <N_O> (N094-0001)
4

>  <logP> (N094-0001)
1.91

>  <logD> (N094-0001)
1.34

>  <logSw> (N094-0001)
-2.46

>  <PSA> (N094-0001)
67.67

>  <Chiral_centers> (N094-0001)
2

>  <Name> (N094-0001)
6-OXO-N-(PROP-2-EN-1-YL)-7,11-DIAZATRICYCLO[7.3.1.0^(2,7)]TRIDECA-2,4-DIENE-11-CARBOTHIOAMIDE

>  <Smile> (N094-0001)
C(NC(N1CC2C[nH0]3c(cccc3C(C1)C2)=O)=S)C=C

>  <Collection> (N094-0001)
DC

>  <InChI Key> (N094-0001)
UUSNTIGQBXXETA-UHFFFAOYSA-N

>  <PERCENTSP3> (N094-0001)
46.7

$$$$

  -ISIS-  -- StrEd -- 

 28 32  0  0  0  0  0  0  0  0999 V2000
   -0.2649    0.4968    0.0000 C   0  0  2  0  0  0  0  0  0  0  0  0
    0.5630    0.9841    0.0000 C   0  0  1  0  0  0  0  0  0  0  0  0
   -1.1119   -0.9462    0.0000 C   0  0  1  0  0  0  0  0  0  0  0  0
   -0.2649   -0.4494    0.0000 C   0  0  0  0  0  0  0  0  0  0  0  0
    1.4004    1.4383    0.0000 O   0  0  0  0  0  0  0  0  0  0  0  0
   -1.9681   -0.4494    0.0000 C   0  0  1  0  0  0  0  0  0  0  0  0
   -2.9286   -0.4494    0.0000 O   0  0  0  0  0  0  0  0  0  0  0  0
    2.2331    1.9351    0.0000 C   0  0  0  0  0  0  0  0  0  0  0  0
   -3.3685   -1.5707    0.0000 C   0  0  0  0  0  0  0  0  0  0  0  0
   -1.8499   -1.3625    0.0000 C   0  0  0  0  0  0  0  0  0  0  0  0
    3.6146    1.0076    0.0000 C   0  0  0  0  0  0  0  0  0  0  0  0
   -2.1763   -2.1716    0.0000 O   0  0  0  0  0  0  0  0  0  0  0  0
    2.2331    0.9841    0.0000 C   0  0  0  0  0  0  0  0  0  0  0  0
   -1.1119    0.9841    0.0000 C   0  0  0  0  0  0  0  0  0  0  0  0
    0.5630    1.9351    0.0000 C   0  0  0  0  0  0  0  0  0  0  0  0
    0.5630   -0.9462    0.0000 C   0  0  0  0  0  0  0  0  0  0  0  0
    3.8654    1.9351    0.0000 O   0  0  0  0  0  0  0  0  0  0  0  0
    1.3815    0.4968    0.0000 C   0  0  1  0  0  0  0  0  0  0  0  0
   -1.9681    0.4968    0.0000 C   0  0  0  0  0  0  0  0  0  0  0  0
    4.2534    0.0189    0.0000 O   0  0  0  0  0  0  0  0  0  0  0  0
    1.3815   -0.4494    0.0000 C   0  0  0  0  0  0  0  0  0  0  0  0
    3.0469    2.4129    0.0000 C   0  0  0  0  0  0  0  0  0  0  0  0
    1.3815    2.4129    0.0000 C   0  0  0  0  0  0  0  0  0  0  0  0
   -0.4305   -1.3910    0.0000 C   0  0  0  0  0  0  0  0  0  0  0  0
   -0.2884    1.6322    0.0000 C   0  0  0  0  0  0  0  0  0  0  0  0
   -3.7517   -2.4129    0.0000 C   0  0  0  0  0  0  0  0  0  0  0  0
   -4.2534   -0.7901    0.0000 C   0  0  0  0  0  0  0  0  0  0  0  0
    2.2520    0.0994    0.0000 C   0  0  0  0  0  0  0  0  0  0  0  0
  2  1  1  0  0  0  0
  4  3  1  0  0  0  0
  4  1  1  0  0  0  0
  2  5  1  6  0  0  0
  6 19  1  0  0  0  0
  6  7  1  1  0  0  0
  8  5  1  0  0  0  0
  9  7  1  0  0  0  0
  3 10  1  6  0  0  0
 11 13  1  0  0  0  0
 12 10  1  0  0  0  0
 13  8  1  0  0  0  0
 14  1  1  0  0  0  0
  2 15  1  1  0  0  0
 16  4  1  0  0  0  0
 17 22  1  0  0  0  0
 18  2  1  0  0  0  0
 19 14  1  0  0  0  0
 20 11  2  0  0  0  0
 21 16  1  0  0  0  0
 22  8  1  0  0  0  0
 23 15  1  0  0  0  0
  3 24  1  1  0  0  0
  1 25  1  1  0  0  0
 26  9  1  0  0  0  0
  9 27  1  0  0  0  0
 18 28  1  6  0  0  0
  3  6  1  0  0  0  0
 18 21  1  0  0  0  0
  8 23  1  0  0  0  0
  9 12  1  0  0  0  0
 17 11  1  0  0  0  0
M  END
>  <IDNUMBER> (N088-0028)
N088-0028

>  <available> (N088-0028)
313

>  <H_acceptor> (N088-0028)
5

>  <H_donor> (N088-0028)
0

>  <B_rotN> (N088-0028)
0

>  <N_O> (N088-0028)
5

>  <logP> (N088-0028)
2.59

>  <logD> (N088-0028)
1.66

>  <logSw> (N088-0028)
-4.02

>  <PSA> (N088-0028)
53.99

>  <Chiral_centers> (N088-0028)
7

>  <Name> (N088-0028)
3,3,6a,8,10b-pentamethyl-decahydro-1H-dispiro[naphtho[2,1-d][1,3]dioxine-7,2':5',3''-bis(oxolane)]-5''-one

>  <Smile> (N088-0028)
CC1C2(C3(CCC4C(C)(COC(O4)(C)C)C3CC1)C)CCC1(O2)CC(=O)OC1

>  <Collection> (N088-0028)
DC

>  <InChI Key> (N088-0028)
MFCIMOFKLLMGJA-NWHKKRTGSA-N

>  <PERCENTSP3> (N088-0028)
95.7

$$$$

  -ISIS-  -- StrEd -- 

 29 33  0  0  0  0  0  0  0  0999 V2000
   -5.9297    0.7475    0.0000 C   0  0  0  0  0  0  0  0  0  0  0  0
   -5.9297   -0.2561    0.0000 C   0  0  0  0  0  0  0  0  0  0  0  0
   -5.0634   -0.7525    0.0000 C   0  0  0  0  0  0  0  0  0  0  0  0
   -5.0634    1.2543    0.0000 C   0  0  0  0  0  0  0  0  0  0  0  0
   -4.1975    0.7475    0.0000 C   0  0  0  0  0  0  0  0  0  0  0  0
   -4.2018   -0.2561    0.0000 N   0  0  0  0  0  0  0  0  0  0  0  0
   -3.3395   -0.7588    0.0000 C   0  0  0  0  0  0  0  0  0  0  0  0
   -2.4677   -0.2633    0.0000 C   0  0  0  0  0  0  0  0  0  0  0  0
   -2.4634    0.7401    0.0000 C   0  0  0  0  0  0  0  0  0  0  0  0
   -3.3312    1.2480    0.0000 C   0  0  0  0  0  0  0  0  0  0  0  0
   -2.4681    1.7561    0.0000 C   0  0  0  0  0  0  0  0  0  0  0  0
   -1.6014    0.2457    0.0000 C   0  0  0  0  0  0  0  0  0  0  0  0
   -1.6066    1.2491    0.0000 N   0  0  0  0  0  0  0  0  0  0  0  0
   -0.7399    1.7561    0.0000 C   0  0  0  0  0  0  0  0  0  0  0  0
    0.1267    1.2543    0.0000 C   0  0  0  0  0  0  0  0  0  0  0  0
    0.1256    0.2509    0.0000 O   0  0  0  0  0  0  0  0  0  0  0  0
    0.9962    1.7548    0.0000 N   0  0  0  0  0  0  0  0  0  0  0  0
    1.8601    1.2543    0.0000 C   0  0  0  0  0  0  0  0  0  0  0  0
    1.9624    0.2615    0.0000 S   0  0  0  0  0  0  0  0  0  0  0  0
    2.7727    1.6585    0.0000 N   0  0  0  0  0  0  0  0  0  0  0  0
    3.4394    0.9158    0.0000 C   0  0  0  0  0  0  0  0  0  0  0  0
    2.9385    0.0561    0.0000 C   0  0  0  0  0  0  0  0  0  0  0  0
    3.4324   -0.8051    0.0000 C   0  0  0  0  0  0  0  0  0  0  0  0
    4.4273   -0.8083    0.0000 C   0  0  0  0  0  0  0  0  0  0  0  0
    4.9257    0.0573    0.0000 C   0  0  0  0  0  0  0  0  0  0  0  0
    4.4291    0.9148    0.0000 C   0  0  0  0  0  0  0  0  0  0  0  0
    4.9278   -1.6777    0.0000 O   0  0  0  0  0  0  0  0  0  0  0  0
    5.9297   -1.6750    0.0000 C   0  0  0  0  0  0  0  0  0  0  0  0
   -5.0621   -1.7561    0.0000 O   0  0  0  0  0  0  0  0  0  0  0  0
  1  4  1  0  0  0  0
 13 14  1  0  0  0  0
  2  3  1  0  0  0  0
 14 15  1  0  0  0  0
  3  6  1  0  0  0  0
 15 16  2  0  0  0  0
  5  4  2  0  0  0  0
 15 17  1  0  0  0  0
 10  5  1  0  0  0  0
 17 18  1  0  0  0  0
 18 19  1  0  0  0  0
  6  7  1  0  0  0  0
  8  7  1  0  0  0  0
 19 22  1  0  0  0  0
 21 20  1  0  0  0  0
 20 18  2  0  0  0  0
  8  9  1  0  0  0  0
  9 10  1  0  0  0  0
 21 22  2  0  0  0  0
  5  6  1  0  0  0  0
 22 23  1  0  0  0  0
 10 11  1  0  0  0  0
 23 24  2  0  0  0  0
 24 25  1  0  0  0  0
  8 12  1  0  0  0  0
 25 26  2  0  0  0  0
 26 21  1  0  0  0  0
  1  2  2  0  0  0  0
 24 27  1  0  0  0  0
 12 13  1  0  0  0  0
 27 28  1  0  0  0  0
 13 11  1  0  0  0  0
  3 29  2  0  0  0  0
M  END
>  <IDNUMBER> (N099-0012)
N099-0012

>  <available> (N099-0012)
360

>  <H_acceptor> (N099-0012)
6

>  <H_donor> (N099-0012)
1

>  <B_rotN> (N099-0012)
5

>  <N_O> (N099-0012)
7

>  <logP> (N099-0012)
1.67

>  <logD> (N099-0012)
1.9

>  <logSw> (N099-0012)
-1.75

>  <PSA> (N099-0012)
103.01

>  <Chiral_centers> (N099-0012)
2

>  <Name> (N099-0012)
N-(6-METHOXY-1,3-BENZOTHIAZOL-2-YL)-2-{6-OXO-7,11-DIAZATRICYCLO[7.3.1.0^(2,7)]TRIDECA-2,4-DIEN-11-YL}ACETAMIDE

>  <Smile> (N099-0012)
O=c1cccc2[nH0]1CC1CC2CN(C1)CC(=O)NC1Sc2c(N=1)ccc(c2)OC

>  <Collection> (N099-0012)
NC

>  <CLNUMBER> (N099-0012)
CL1871

>  <InChI Key> (N099-0012)
ONSLYNOCZWIWGM-UHFFFAOYSA-N

>  <PERCENTSP3> (N099-0012)
38.1

$$$$

  -ISIS-  -- StrEd -- 

 22 23  0  0  0  0  0  0  0  0999 V2000
    1.6079   -0.0709    0.0000 C   0  0  0  0  0  0  0  0  0  0  0  0
   -1.4829   -0.0209    0.0000 C   0  0  0  0  0  0  0  0  0  0  0  0
   -2.7909   -0.9664    0.0000 N   0  0  0  0  0  0  0  0  0  0  0  0
    0.6081   -0.0709    0.0000 C   0  0  0  0  0  0  0  0  0  0  0  0
   -2.4826   -0.0165    0.0000 C   0  0  0  0  0  0  0  0  0  0  0  0
   -1.1788   -0.9706    0.0000 C   0  0  0  0  0  0  0  0  0  0  0  0
    0.1083    0.7915    0.0000 O   0  0  0  0  0  0  0  0  0  0  0  0
   -1.9828   -1.5580    0.0000 C   0  0  0  0  0  0  0  0  0  0  0  0
   -3.7907   -0.9664    0.0000 C   0  0  0  0  0  0  0  0  0  0  0  0
   -4.1030   -0.0165    0.0000 C   0  0  0  0  0  0  0  0  0  0  0  0
   -0.8913    0.7915    0.0000 C   0  0  0  0  0  0  0  0  0  0  0  0
   -3.2907    0.5707    0.0000 C   0  0  2  0  0  0  0  0  0  0  0  0
    0.1083   -0.9414    0.0000 O   0  0  0  0  0  0  0  0  0  0  0  0
    2.6076   -0.0709    0.0000 C   0  0  0  0  0  0  0  0  0  0  0  0
    1.6079   -1.0706    0.0000 C   0  0  0  0  0  0  0  0  0  0  0  0
    1.6079    0.9289    0.0000 O   0  0  0  0  0  0  0  0  0  0  0  0
   -3.2948    1.5704    0.0000 O   0  0  0  0  0  0  0  0  0  0  0  0
    3.1033    0.8039    0.0000 O   0  0  0  0  0  0  0  0  0  0  0  0
    3.1076   -0.9332    0.0000 C   0  0  0  0  0  0  0  0  0  0  0  0
    0.7457   -1.5704    0.0000 C   0  0  0  0  0  0  0  0  0  0  0  0
    2.4785   -1.5704    0.0000 C   0  0  0  0  0  0  0  0  0  0  0  0
    4.1030    0.8039    0.0000 C   0  0  0  0  0  0  0  0  0  0  0  0
  2 11  1  0  0  0  0
  3  5  1  0  0  0  0
  4  1  1  0  0  0  0
  5  2  1  0  0  0  0
  6  2  2  0  0  0  0
  7  4  1  0  0  0  0
  8  6  1  0  0  0  0
  9  3  1  0  0  0  0
 10 12  1  0  0  0  0
 11  7  1  0  0  0  0
 12  5  1  0  0  0  0
 13  4  2  0  0  0  0
 14  1  1  0  0  0  0
 15  1  1  0  0  0  0
 16  1  1  0  0  0  0
 12 17  1  6  0  0  0
 18 14  1  0  0  0  0
 19 14  1  0  0  0  0
 20 15  1  0  0  0  0
 21 15  1  0  0  0  0
 22 18  1  0  0  0  0
  8  3  1  0  0  0  0
  9 10  1  0  0  0  0
M  END
>  <IDNUMBER> (N105-0030)
N105-0030

>  <available> (N105-0030)
1

>  <H_acceptor> (N105-0030)
6

>  <H_donor> (N105-0030)
2

>  <B_rotN> (N105-0030)
9

>  <N_O> (N105-0030)
6

>  <logP> (N105-0030)
0.54

>  <logD> (N105-0030)
0.54

>  <logSw> (N105-0030)
-1.28

>  <PSA> (N105-0030)
79.23

>  <Chiral_centers> (N105-0030)
4

>  <Name> (N105-0030)
[(1S)-1-hydroxy-2,3,5,7a-tetrahydro-1H-pyrrolizin-7-yl]methyl 2-hydroxy-2-isopropyl-3-methoxybutanoate

>  <Smile> (N105-0030)
C(C(OC/C=1/C2N(C\C1)CC[C@@H]2O)=O)(C(OC)C)(C(C)C)O

>  <Collection> (N105-0030)
DC

>  <InChI Key> (N105-0030)
LMFKRLGHEKVMNT-LITNIGARSA-N

>  <PERCENTSP3> (N105-0030)
81.25

$$$$

  -ISIS-  -- StrEd -- 

 29 32  0  0  0  0  0  0  0  0999 V2000
    1.7344    1.5009    0.0000 C   0  0  0  0  0  0  0  0  0  0  0  0
    2.5972    0.9963    0.0000 C   0  0  0  0  0  0  0  0  0  0  0  0
    2.5849   -0.0042    0.0000 O   0  0  0  0  0  0  0  0  0  0  0  0
    1.7219   -0.5044    0.0000 C   0  0  0  0  0  0  0  0  0  0  0  0
    0.8672    0.9963    0.0000 C   0  0  0  0  0  0  0  0  0  0  0  0
    0.8546    0.0083    0.0000 C   0  0  0  0  0  0  0  0  0  0  0  0
   -1.7344    2.5014    0.0000 O   0  0  0  0  0  0  0  0  0  0  0  0
   -0.8672    3.0016    0.0000 C   0  0  0  0  0  0  0  0  0  0  0  0
    0.8422   -1.9928    0.0000 C   0  0  0  0  0  0  0  0  0  0  0  0
    1.7050   -1.4926    0.0000 C   0  0  0  0  0  0  0  0  0  0  0  0
   -2.5932    3.0099    0.0000 C   0  0  0  0  0  0  0  0  0  0  0  0
   -1.7302    4.4942    0.0000 C   0  0  0  0  0  0  0  0  0  0  0  0
    1.7344    2.5014    0.0000 O   0  0  0  0  0  0  0  0  0  0  0  0
   -0.0293   -1.4801    0.0000 C   0  0  0  0  0  0  0  0  0  0  0  0
   -0.0167   -0.4878    0.0000 C   0  0  0  0  0  0  0  0  0  0  0  0
   -0.0042    2.5014    0.0000 C   0  0  0  0  0  0  0  0  0  0  0  0
    0.8422   -2.9933    0.0000 O   0  0  0  0  0  0  0  0  0  0  0  0
   -2.5932    4.0022    0.0000 C   0  0  0  0  0  0  0  0  0  0  0  0
   -0.8672    3.9981    0.0000 C   0  0  0  0  0  0  0  0  0  0  0  0
    1.7050   -3.5020    0.0000 C   0  0  0  0  0  0  0  0  0  0  0  0
    0.8712    3.0016    0.0000 C   0  0  0  0  0  0  0  0  0  0  0  0
    3.4685    1.5009    0.0000 O   0  0  0  0  0  0  0  0  0  0  0  0
   -3.4685    2.5222    0.0000 O   0  0  0  0  0  0  0  0  0  0  0  0
    2.5723   -2.9933    0.0000 O   0  0  0  0  0  0  0  0  0  0  0  0
   -0.0042    4.5025    0.0000 C   0  0  0  0  0  0  0  0  0  0  0  0
    0.8712    4.0022    0.0000 C   0  0  0  0  0  0  0  0  0  0  0  0
   -0.8921   -1.9803    0.0000 O   0  0  0  0  0  0  0  0  0  0  0  0
    1.6967   -4.5025    0.0000 C   0  0  0  0  0  0  0  0  0  0  0  0
   -1.7677   -1.4801    0.0000 C   0  0  0  0  0  0  0  0  0  0  0  0
  2  1  1  0  0  0  0
  3  2  1  0  0  0  0
  4  6  2  0  0  0  0
  5  1  2  0  0  0  0
  6  5  1  0  0  0  0
  7  8  1  0  0  0  0
  8 16  1  0  0  0  0
  9 14  1  0  0  0  0
 10  4  1  0  0  0  0
 11  7  1  0  0  0  0
 12 19  1  0  0  0  0
 13  1  1  0  0  0  0
 14 15  2  0  0  0  0
 15  6  1  0  0  0  0
 16 21  2  0  0  0  0
 17  9  1  0  0  0  0
 18 12  2  0  0  0  0
 19 25  1  0  0  0  0
 20 17  1  0  0  0  0
 21 13  1  0  0  0  0
 22  2  2  0  0  0  0
 23 11  2  0  0  0  0
 24 20  2  0  0  0  0
 25 26  2  0  0  0  0
 26 21  1  0  0  0  0
 27 14  1  0  0  0  0
 28 20  1  0  0  0  0
 29 27  1  0  0  0  0
  3  4  1  0  0  0  0
 10  9  2  0  0  0  0
 19  8  2  0  0  0  0
 18 11  1  0  0  0  0
M  END
>  <IDNUMBER> (N105-0117)
N105-0117

>  <available> (N105-0117)
43

>  <H_acceptor> (N105-0117)
8

>  <H_donor> (N105-0117)
0

>  <B_rotN> (N105-0117)
5

>  <N_O> (N105-0117)
8

>  <logP> (N105-0117)
2.88

>  <logD> (N105-0117)
2.03

>  <logSw> (N105-0117)
-3.94

>  <PSA> (N105-0117)
97.36

>  <Chiral_centers> (N105-0117)
0

>  <Name> (N105-0117)
6-methoxy-2-oxo-3-[(2-oxo-2H-chromen-7-yl)oxy]-2H-chromen-7-yl acetate

>  <Smile> (N105-0117)
COc1c(OC(=O)C)cc2OC(C(Oc3cc4OC(C=Cc4cc3)=O)=Cc2c1)=O

>  <Collection> (N105-0117)
DC

>  <CLNUMBER> (N105-0117)
CV0119

>  <InChI Key> (N105-0117)
JGZOXTSCOZGQNQ-UHFFFAOYSA-N

>  <PERCENTSP3> (N105-0117)
9.5

$$$$

  -ISIS-  -- StrEd -- 

 22 24  0  0  0  0  0  0  0  0999 V2000
    1.2772    0.7669    0.0000 C   0  0  0  0  0  0  0  0  0  0  0  0
    0.4277    1.2619    0.0000 C   0  0  0  0  0  0  0  0  0  0  0  0
    0.4277   -0.7303    0.0000 O   0  0  0  0  0  0  0  0  0  0  0  0
    1.2772   -0.2354    0.0000 C   0  0  0  0  0  0  0  0  0  0  0  0
   -0.4523    0.7669    0.0000 C   0  0  0  0  0  0  0  0  0  0  0  0
   -0.4523   -0.2354    0.0000 C   0  0  0  0  0  0  0  0  0  0  0  0
    2.1268    1.2619    0.0000 C   0  0  0  0  0  0  0  0  0  0  0  0
   -1.3016   -0.7303    0.0000 C   0  0  0  0  0  0  0  0  0  0  0  0
    2.1268   -0.7303    0.0000 C   0  0  0  0  0  0  0  0  0  0  0  0
    3.0069    0.7669    0.0000 C   0  0  0  0  0  0  0  0  0  0  0  0
   -2.1514   -0.2354    0.0000 C   0  0  0  0  0  0  0  0  0  0  0  0
   -3.0068   -0.7303    0.0000 C   0  0  0  0  0  0  0  0  0  0  0  0
    0.4277    2.2583    0.0000 O   0  0  0  0  0  0  0  0  0  0  0  0
    3.0069   -0.2354    0.0000 C   0  0  0  0  0  0  0  0  0  0  0  0
   -3.0068   -1.7570    0.0000 C   0  0  0  0  0  0  0  0  0  0  0  0
   -1.2712   -1.7570    0.0000 C   0  0  0  0  0  0  0  0  0  0  0  0
   -2.1268   -2.2583    0.0000 C   0  0  0  0  0  0  0  0  0  0  0  0
   -1.3324    1.2619    0.0000 O   0  0  0  0  0  0  0  0  0  0  0  0
    2.1268    2.2583    0.0000 O   0  0  0  0  0  0  0  0  0  0  0  0
   -3.8870   -0.2354    0.0000 O   0  0  0  0  0  0  0  0  0  0  0  0
    3.8870   -0.7303    0.0000 O   0  0  0  0  0  0  0  0  0  0  0  0
   -3.8565   -2.2583    0.0000 O   0  0  0  0  0  0  0  0  0  0  0  0
  2  1  1  0  0  0  0
  3  4  1  0  0  0  0
  4  1  2  0  0  0  0
  5  2  1  0  0  0  0
  6  3  1  0  0  0  0
  7  1  1  0  0  0  0
  6  8  1  0  0  0  0
  9  4  1  0  0  0  0
 10  7  2  0  0  0  0
 11  8  2  0  0  0  0
 12 11  1  0  0  0  0
 13  2  2  0  0  0  0
 14 10  1  0  0  0  0
 15 17  1  0  0  0  0
 16  8  1  0  0  0  0
 17 16  2  0  0  0  0
  5 18  1  0  0  0  0
 19  7  1  0  0  0  0
 20 12  1  0  0  0  0
 21 14  1  0  0  0  0
 22 15  1  0  0  0  0
 14  9  2  0  0  0  0
  6  5  1  0  0  0  0
 15 12  2  0  0  0  0
M  END
>  <IDNUMBER> (0407-0108)
0407-0108

>  <available> (0407-0108)
584

>  <H_acceptor> (0407-0108)
7

>  <H_donor> (0407-0108)
5

>  <B_rotN> (0407-0108)
6

>  <N_O> (0407-0108)
7

>  <logP> (0407-0108)
1.45

>  <logD> (0407-0108)
-0.27

>  <logSw> (0407-0108)
-1.85

>  <PSA> (0407-0108)
127.45

>  <Chiral_centers> (0407-0108)
2

>  <Name> (0407-0108)
2-(3,4-dihydroxyphenyl)-3,5,7-trihydroxy-3,4-dihydro-2H-1-benzopyran-4-one

>  <Smile> (0407-0108)
Oc1c(cc(C2Oc3c(c(cc(c3)O)O)C(=O)C2O)cc1)O

>  <Collection> (0407-0108)
NC

>  <InChI Key> (0407-0108)
CXQWRCVTCMQVQX-UHFFFAOYSA-N

>  <PERCENTSP3> (0407-0108)
13.3

$$$$

  -ISIS-  -- StrEd -- 

 49 55  0  0  0  0  0  0  0  0999 V2000
    4.1902    1.5169    0.0000 C   0  0  0  0  0  0  0  0  0  0  0  0
    1.9415    1.0610    0.0000 C   0  0  0  0  0  0  0  0  0  0  0  0
    4.1902    2.3658    0.0000 C   0  0  0  0  0  0  0  0  0  0  0  0
    1.9415    0.2058    0.0000 C   0  0  0  0  0  0  0  0  0  0  0  0
   -4.0190   -4.8995    0.0000 C   0  0  0  0  0  0  0  0  0  0  0  0
    2.7016    1.5169    0.0000 C   0  0  2  0  0  0  0  0  0  0  0  0
    3.4301    1.0610    0.0000 C   0  0  1  0  0  0  0  0  0  0  0  0
   -3.2146   -3.8798    0.0000 C   0  0  0  0  0  0  0  0  0  0  0  0
    5.3745    3.4299    0.0000 C   0  0  0  0  0  0  0  0  0  0  0  0
   -3.2146   -1.4472    0.0000 C   0  0  0  0  0  0  0  0  0  0  0  0
    5.0073    2.6256    0.0000 C   0  0  0  0  0  0  0  0  0  0  0  0
   -3.2146   -2.7396    0.0000 O   0  0  0  0  0  0  0  0  0  0  0  0
   -5.5710   -4.8995    0.0000 C   0  0  0  0  0  0  0  0  0  0  0  0
   -0.3387   -1.4472    0.0000 C   0  0  0  0  0  0  0  0  0  0  0  0
   -1.0735   -0.4784    0.0000 O   0  0  0  0  0  0  0  0  0  0  0  0
   -1.0735   -2.3785    0.0000 C   0  0  0  0  0  0  0  0  0  0  0  0
    4.9818    4.1902    0.0000 C   0  0  0  0  0  0  0  0  0  0  0  0
   -4.0190   -2.8472    0.0000 O   0  0  0  0  0  0  0  0  0  0  0  0
   -2.4861   -2.3785    0.0000 C   0  0  0  0  0  0  0  0  0  0  0  0
   -2.4861   -0.4784    0.0000 C   0  0  0  0  0  0  0  0  0  0  0  0
    5.6026    4.8108    0.0000 C   0  0  0  0  0  0  0  0  0  0  0  0
    5.0073    1.2257    0.0000 C   0  0  0  0  0  0  0  0  0  0  0  0
    3.4301    2.8092    0.0000 C   0  0  0  0  0  0  0  0  0  0  0  0
    1.1623   -0.2184    0.0000 C   0  0  0  0  0  0  0  0  0  0  0  0
    1.1623    1.5169    0.0000 C   0  0  0  0  0  0  0  0  0  0  0  0
    2.7016    2.3658    0.0000 C   0  0  0  0  0  0  0  0  0  0  0  0
    6.3311    4.4181    0.0000 O   0  0  0  0  0  0  0  0  0  0  0  0
    5.4950    1.9415    0.0000 C   0  0  0  0  0  0  0  0  0  0  0  0
    3.4301    0.2058    0.0000 C   0  0  0  0  0  0  0  0  0  0  0  0
   -6.3182   -3.8798    0.0000 C   0  0  0  0  0  0  0  0  0  0  0  0
    2.7016   -0.2184    0.0000 C   0  0  0  0  0  0  0  0  0  0  0  0
    6.2235    3.5691    0.0000 C   0  0  0  0  0  0  0  0  0  0  0  0
    1.9415    1.9415    0.0000 C   0  0  0  0  0  0  0  0  0  0  0  0
   -0.3387   -0.2503    0.0000 O   0  0  0  0  0  0  0  0  0  0  0  0
   -5.5710   -2.8472    0.0000 C   0  0  0  0  0  0  0  0  0  0  0  0
    0.4339    0.2058    0.0000 C   0  0  0  0  0  0  0  0  0  0  0  0
    5.2861    5.7799    0.0000 O   0  0  0  0  0  0  0  0  0  0  0  0
    4.1712    0.4529    0.0000 O   0  0  0  0  0  0  0  0  0  0  0  0
   -4.0190   -5.7799    0.0000 O   0  0  0  0  0  0  0  0  0  0  0  0
    1.9415   -0.9471    0.0000 O   0  0  0  0  0  0  0  0  0  0  0  0
    1.1623    2.3658    0.0000 O   0  0  0  0  0  0  0  0  0  0  0  0
   -5.5710   -3.9749    0.0000 O   0  0  0  0  0  0  0  0  0  0  0  0
    0.4339    1.0610    0.0000 C   0  0  0  0  0  0  0  0  0  0  0  0
    4.1712    3.3855    0.0000 C   0  0  0  0  0  0  0  0  0  0  0  0
   -2.4861   -3.2273    0.0000 O   0  0  0  0  0  0  0  0  0  0  0  0
   -6.3311   -4.9630    0.0000 O   0  0  0  0  0  0  0  0  0  0  0  0
   -2.4861    0.3262    0.0000 C   0  0  0  0  0  0  0  0  0  0  0  0
    3.4301    1.8338    0.0000 H   0  0  0  0  0  0  0  0  0  0  0  0
    2.7141    0.6810    0.0000 H   0  0  0  0  0  0  0  0  0  0  0  0
  2  6  1  0  0  0  0
  3  1  1  0  0  0  0
  4 31  1  0  0  0  0
  5  8  1  0  0  0  0
  6  7  1  0  0  0  0
  7  1  1  0  0  0  0
  8 12  1  0  0  0  0
 11  9  1  0  0  0  0
 10 19  1  0  0  0  0
 11  3  1  0  0  0  0
 10 12  1  0  0  0  0
 13  5  1  0  0  0  0
 14 34  1  0  0  0  0
 15 14  1  0  0  0  0
 16 14  1  0  0  0  0
 17  9  2  0  0  0  0
 18  8  1  0  0  0  0
 19 16  1  0  0  0  0
 20 15  1  0  0  0  0
 21 17  1  0  0  0  0
 22  1  1  0  0  0  0
 23  3  1  0  0  0  0
 24  4  1  0  0  0  0
 25  2  1  0  0  0  0
 26  6  1  0  0  0  0
 27 32  1  0  0  0  0
 28 22  1  0  0  0  0
 29  7  1  0  0  0  0
 30 35  1  0  0  0  0
 31 29  1  0  0  0  0
 32  9  1  0  0  0  0
  2 33  1  0  0  0  0
 36 34  1  0  0  0  0
 35 18  1  0  0  0  0
 36 24  1  0  0  0  0
 37 21  2  0  0  0  0
  1 38  1  0  0  0  0
  5 39  1  0  0  0  0
  4 40  1  0  0  0  0
 41 33  2  0  0  0  0
 13 42  1  0  0  0  0
 43 25  1  0  0  0  0
  3 44  1  0  0  0  0
 19 45  1  0  0  0  0
 30 46  1  0  0  0  0
 20 47  1  0  0  0  0
  7 48  1  1  0  0  0
  6 49  1  6  0  0  0
 11 28  1  0  0  0  0
 26 23  1  0  0  0  0
  4  2  1  0  0  0  0
 36 43  1  0  0  0  0
 21 27  1  0  0  0  0
 10 20  1  0  0  0  0
 30 13  1  0  0  0  0
M  END
>  <IDNUMBER> (0449-0002)
0449-0002

>  <available> (0449-0002)
150

>  <H_acceptor> (0449-0002)
13

>  <H_donor> (0449-0002)
6

>  <B_rotN> (0449-0002)
12

>  <N_O> (0449-0002)
13

>  <logP> (0449-0002)
-0.1

>  <logD> (0449-0002)
-1.03

>  <logSw> (0449-0002)
-4.42

>  <PSA> (0449-0002)
201.67

>  <Chiral_centers> (0449-0002)
16

>  <Name> (0449-0002)
3a,5a-dihydroxy-7-({4-hydroxy-6-methyl-5-[(3,4,5-trihydroxyoxan-2-yl)oxy]oxan-2-yl}oxy)-11a-methyl-1-(5-oxo-2,5-dihydrofuran-3-yl)-hexadecahydro-1H-cyclopenta[a]phenanthrene-9a-carbaldehyde

>  <Smile> (0449-0002)
CC1C(OC2C(O)C(C(CO2)O)O)C(CC(OC2CC3(C(C4C(C5(O)CCC(C5(C)CC4)C4=CC(OC4)=O)CC3)(C=O)CC2)O)O1)O

>  <Collection> (0449-0002)
DC

>  <InChI Key> (0449-0002)
GPMRZMZJGUPWPZ-PZYNOMBBSA-N

>  <PERCENTSP3> (0449-0002)
88.2

$$$$

  -ISIS-  -- StrEd -- 

 33 37  0  0  0  0  0  0  0  0999 V2000
   -0.4232   -0.0002    0.0000 C   0  0  0  0  0  0  0  0  0  0  0  0
   -2.9683   -1.4491    0.0000 C   0  0  0  0  0  0  0  0  0  0  0  0
   -2.9683   -2.4111    0.0000 C   0  0  0  0  0  0  0  0  0  0  0  0
   -0.4232   -0.9620    0.0000 C   0  0  0  0  0  0  0  0  0  0  0  0
   -2.1218   -0.9620    0.0000 C   0  0  0  0  0  0  0  0  0  0  0  0
   -1.2696   -1.4491    0.0000 C   0  0  0  0  0  0  0  0  0  0  0  0
    0.4232    0.4808    0.0000 C   0  0  0  0  0  0  0  0  0  0  0  0
   -2.1218   -2.8921    0.0000 C   0  0  0  0  0  0  0  0  0  0  0  0
   -1.2696    0.4808    0.0000 C   0  0  0  0  0  0  0  0  0  0  0  0
   -1.2696   -2.4111    0.0000 C   0  0  0  0  0  0  0  0  0  0  0  0
   -2.1218   -0.0002    0.0000 C   0  0  0  0  0  0  0  0  0  0  0  0
    1.2696   -0.9620    0.0000 C   0  0  0  0  0  0  0  0  0  0  0  0
   -3.8145   -0.9620    0.0000 C   0  0  0  0  0  0  0  0  0  0  0  0
    1.2696   -0.0002    0.0000 C   0  0  0  0  0  0  0  0  0  0  0  0
    2.9501    1.9118    0.0000 C   0  0  0  0  0  0  0  0  0  0  0  0
   -3.8145   -2.8921    0.0000 C   0  0  0  0  0  0  0  0  0  0  0  0
    2.1035    1.4491    0.0000 C   0  0  0  0  0  0  0  0  0  0  0  0
    3.7841    1.4004    0.0000 C   0  0  0  0  0  0  0  0  0  0  0  0
    0.4232    1.4613    0.0000 C   0  0  0  0  0  0  0  0  0  0  0  0
    1.2696    1.9301    0.0000 C   0  0  0  0  0  0  0  0  0  0  0  0
   -0.4232    0.9925    0.0000 C   0  0  0  0  0  0  0  0  0  0  0  0
   -4.6607   -1.4491    0.0000 C   0  0  0  0  0  0  0  0  0  0  0  0
   -4.6607   -2.4111    0.0000 C   0  0  0  0  0  0  0  0  0  0  0  0
   -2.9804   -0.4812    0.0000 C   0  0  0  0  0  0  0  0  0  0  0  0
    2.9377    0.8035    0.0000 O   0  0  0  0  0  0  0  0  0  0  0  0
   -5.5071   -2.8921    0.0000 O   0  0  0  0  0  0  0  0  0  0  0  0
    2.9620    2.8921    0.0000 C   0  0  0  0  0  0  0  0  0  0  0  0
    3.7538    0.4079    0.0000 C   0  0  0  0  0  0  0  0  0  0  0  0
    4.6607    1.8692    0.0000 C   0  0  0  0  0  0  0  0  0  0  0  0
   -0.3196    2.1065    0.0000 C   0  0  0  0  0  0  0  0  0  0  0  0
    4.5878   -0.1341    0.0000 C   0  0  0  0  0  0  0  0  0  0  0  0
    5.5071    1.3577    0.0000 C   0  0  0  0  0  0  0  0  0  0  0  0
    5.4768    0.3530    0.0000 C   0  0  0  0  0  0  0  0  0  0  0  0
  2  5  1  0  0  0  0
  3  2  1  0  0  0  0
  4  1  1  0  0  0  0
  5 11  1  0  0  0  0
  6  4  1  0  0  0  0
  7  1  1  0  0  0  0
  8 10  1  0  0  0  0
  9  1  1  0  0  0  0
 10  6  1  0  0  0  0
 11  9  1  0  0  0  0
 12  4  1  0  0  0  0
 13  2  1  0  0  0  0
 14  7  1  0  0  0  0
 15 17  1  0  0  0  0
 16  3  1  0  0  0  0
 17 20  1  0  0  0  0
 18 15  1  0  0  0  0
 19  7  1  0  0  0  0
 20 19  1  0  0  0  0
 21  1  1  0  0  0  0
 22 13  1  0  0  0  0
 23 22  1  0  0  0  0
 24  2  1  0  0  0  0
 25 15  1  0  0  0  0
 26 23  1  0  0  0  0
 27 15  1  0  0  0  0
 28 18  2  0  0  0  0
 29 18  1  0  0  0  0
 30 19  1  0  0  0  0
 31 28  1  0  0  0  0
 32 29  2  0  0  0  0
 33 32  1  0  0  0  0
 14 12  1  0  0  0  0
  6  5  1  0  0  0  0
  8  3  2  0  0  0  0
 16 23  1  0  0  0  0
 31 33  2  0  0  0  0
M  END
>  <IDNUMBER> (1080-0561)
1080-0561

>  <available> (1080-0561)
23

>  <H_acceptor> (1080-0561)
2

>  <H_donor> (1080-0561)
2

>  <B_rotN> (1080-0561)
7

>  <N_O> (1080-0561)
2

>  <logP> (1080-0561)
8.34

>  <logD> (1080-0561)
8.34

>  <logSw> (1080-0561)
-7.53

>  <PSA> (1080-0561)
40.46

>  <Chiral_centers> (1080-0561)
9

>  <Name> (1080-0561)
1-(5-hydroxy-5-phenylhexan-2-yl)-9a,11a-dimethyl-1H,2H,3H,3aH,3bH,4H,6H,7H,8H,9H,9aH,9bH,10H,11H,11aH-cyclopenta[a]phenanthren-7-ol

>  <Smile> (1080-0561)
C12(C(C3C(C4(/C(=C\C3)/CC(CC4)O)C)CC1)CCC2C(CCC(c1ccccc1)(O)C)C)C

>  <Collection> (1080-0561)
DC

>  <InChI Key> (1080-0561)
YTYFNWLHEUUCIW-UHFFFAOYSA-N

>  <PERCENTSP3> (1080-0561)
74.194

$$$$

  -ISIS-  -- StrEd -- 

 52 57  0  0  0  0  0  0  0  0999 V2000
    1.6947    1.5634    0.0000 C   0  0  0  0  0  0  0  0  0  0  0  0
    0.9926    1.1796    0.0000 C   0  0  0  0  0  0  0  0  0  0  0  0
    1.6947    2.3768    0.0000 C   0  0  0  0  0  0  0  0  0  0  0  0
    0.2753    1.5634    0.0000 C   0  0  0  0  0  0  0  0  0  0  0  0
    2.4474   -2.7404    0.0000 C   0  0  0  0  0  0  0  0  0  0  0  0
    0.9926    2.8011    0.0000 O   0  0  0  0  0  0  0  0  0  0  0  0
   -1.8211    3.7104    0.0000 C   0  0  0  0  0  0  0  0  0  0  0  0
    0.2753    2.3768    0.0000 C   0  0  0  0  0  0  0  0  0  0  0  0
    1.7705   -3.5991    0.0000 C   0  0  0  0  0  0  0  0  0  0  0  0
   -2.5235    2.8162    0.0000 C   0  0  0  0  0  0  0  0  0  0  0  0
   -1.5786   -1.1138    0.0000 C   0  0  0  0  0  0  0  0  0  0  0  0
    2.4122    1.1392    0.0000 O   0  0  0  0  0  0  0  0  0  0  0  0
    0.4218   -3.5991    0.0000 C   0  0  0  0  0  0  0  0  0  0  0  0
   -3.8317    2.8162    0.0000 C   0  0  0  0  0  0  0  0  0  0  0  0
   -2.9122   -1.0885    0.0000 C   0  0  0  0  0  0  0  0  0  0  0  0
    1.7705   -1.8411    0.0000 O   0  0  0  0  0  0  0  0  0  0  0  0
   -0.8766   -0.2650    0.0000 C   0  0  0  0  0  0  0  0  0  0  0  0
   -2.5235    4.6196    0.0000 O   0  0  0  0  0  0  0  0  0  0  0  0
   -0.2450   -2.7251    0.0000 C   0  0  0  0  0  0  0  0  0  0  0  0
   -0.4368    1.1796    0.0000 C   0  0  0  0  0  0  0  0  0  0  0  0
   -1.5533    0.6441    0.0000 O   0  0  0  0  0  0  0  0  0  0  0  0
    0.4368   -1.8411    0.0000 C   0  0  0  0  0  0  0  0  0  0  0  0
   -4.5337    3.7104    0.0000 C   0  0  0  0  0  0  0  0  0  0  0  0
   -3.5790   -0.2399    0.0000 C   0  0  0  0  0  0  0  0  0  0  0  0
   -3.8317    4.6196    0.0000 C   0  0  0  0  0  0  0  0  0  0  0  0
   -2.9122    0.6441    0.0000 C   0  0  0  0  0  0  0  0  0  0  0  0
   -1.1292    2.3768    0.0000 C   0  0  0  0  0  0  0  0  0  0  0  0
   -0.4368    2.8011    0.0000 C   0  0  0  0  0  0  0  0  0  0  0  0
   -1.8211    2.8617    0.0000 O   0  0  0  0  0  0  0  0  0  0  0  0
   -1.1292    1.5634    0.0000 C   0  0  0  0  0  0  0  0  0  0  0  0
    2.3716    2.8011    0.0000 C   0  0  0  0  0  0  0  0  0  0  0  0
   -0.8613   -1.2957    0.0000 O   0  0  0  0  0  0  0  0  0  0  0  0
    0.9926    0.3411    0.0000 O   0  0  0  0  0  0  0  0  0  0  0  0
    0.4368   -1.2855    0.0000 C   0  0  0  0  0  0  0  0  0  0  0  0
    1.7806   -4.6196    0.0000 O   0  0  0  0  0  0  0  0  0  0  0  0
   -2.5235    1.9677    0.0000 O   0  0  0  0  0  0  0  0  0  0  0  0
   -1.5786   -1.7553    0.0000 O   0  0  0  0  0  0  0  0  0  0  0  0
    2.3716    3.5891    0.0000 C   0  0  0  0  0  0  0  0  0  0  0  0
    3.0891    2.3768    0.0000 C   0  0  0  0  0  0  0  0  0  0  0  0
   -2.9122   -1.7553    0.0000 O   0  0  0  0  0  0  0  0  0  0  0  0
    0.4218   -2.5787    0.0000 O   0  0  0  0  0  0  0  0  0  0  0  0
   -3.8317    1.9879    0.0000 O   0  0  0  0  0  0  0  0  0  0  0  0
   -0.4368    0.3411    0.0000 O   0  0  0  0  0  0  0  0  0  0  0  0
   -0.2551   -1.8159    0.0000 O   0  0  0  0  0  0  0  0  0  0  0  0
   -3.5790    0.4976    0.0000 O   0  0  0  0  0  0  0  0  0  0  0  0
   -4.5337    4.6196    0.0000 O   0  0  0  0  0  0  0  0  0  0  0  0
    3.8063    3.5891    0.0000 C   0  0  0  0  0  0  0  0  0  0  0  0
    3.0891    4.0035    0.0000 C   0  0  0  0  0  0  0  0  0  0  0  0
    3.8063    2.8011    0.0000 C   0  0  0  0  0  0  0  0  0  0  0  0
    4.5337    4.0035    0.0000 O   0  0  0  0  0  0  0  0  0  0  0  0
   -3.8317    3.8115    0.0000 C   0  0  0  0  0  0  0  0  0  0  0  0
   -2.9122   -0.0934    0.0000 C   0  0  0  0  0  0  0  0  0  0  0  0
  2  1  1  0  0  0  0
  3  1  2  0  0  0  0
  4  2  1  0  0  0  0
  5 12  1  0  0  0  0
  6  3  1  0  0  0  0
  7 29  1  0  0  0  0
  8  6  1  0  0  0  0
  9  5  1  0  0  0  0
 10  7  1  0  0  0  0
 11 17  1  0  0  0  0
 12  1  1  0  0  0  0
 13  9  1  0  0  0  0
 14 10  1  0  0  0  0
 15 11  1  0  0  0  0
 16  5  1  0  0  0  0
 17 32  1  0  0  0  0
 18  7  1  0  0  0  0
 19 22  1  0  0  0  0
 20  4  1  0  0  0  0
 21 17  1  0  0  0  0
 22 16  1  0  0  0  0
 23 25  1  0  0  0  0
 24 26  1  0  0  0  0
 25 18  1  0  0  0  0
 26 21  1  0  0  0  0
 27 28  2  0  0  0  0
 28  8  1  0  0  0  0
 29 27  1  0  0  0  0
 30 20  2  0  0  0  0
 31  3  1  0  0  0  0
 32 34  1  0  0  0  0
 33  2  2  0  0  0  0
 22 34  1  0  0  0  0
  9 35  1  0  0  0  0
 10 36  1  0  0  0  0
 11 37  1  0  0  0  0
 38 31  2  0  0  0  0
 39 31  1  0  0  0  0
 15 40  1  0  0  0  0
 13 41  1  0  0  0  0
 14 42  1  0  0  0  0
 43 20  1  0  0  0  0
 19 44  1  0  0  0  0
 24 45  1  0  0  0  0
 23 46  1  0  0  0  0
 47 49  1  0  0  0  0
 48 38  1  0  0  0  0
 49 39  2  0  0  0  0
 50 47  1  0  0  0  0
 25 51  1  0  0  0  0
 26 52  1  0  0  0  0
  4  8  2  0  0  0  0
 47 48  2  0  0  0  0
 30 27  1  0  0  0  0
 13 19  1  0  0  0  0
 15 24  1  0  0  0  0
 14 23  1  0  0  0  0
M  END
>  <IDNUMBER> (N039-0006)
N039-0006

>  <available> (N039-0006)
8

>  <H_acceptor> (N039-0006)
19

>  <H_donor> (N039-0006)
11

>  <B_rotN> (N039-0006)
19

>  <N_O> (N039-0006)
19

>  <logP> (N039-0006)
-2.19

>  <logD> (N039-0006)
-6.33

>  <logSw> (N039-0006)
-1.71

>  <PSA> (N039-0006)
304.21

>  <Chiral_centers> (N039-0006)
15

>  <Name> (N039-0006)
5-hydroxy-2-(4-hydroxyphenyl)-7-[(3,4,5-trihydroxy-6-methyloxan-2-yl)oxy]-3-[(3,4,5-trihydroxy-6-{[(3,4,5-trihydroxy-6-methyloxan-2-yl)oxy]methyl}oxan-2-yl)oxy]-4H-chromen-4-one

>  <Smile> (N039-0006)
CC1OC(C(O)C(C1O)O)OCC1OC(OC2=C(Oc3c(C2=O)c(cc(c3)OC2C(C(C(C(O2)C)O)O)O)O)c2ccc(O)cc2)C(C(C1O)O)O

>  <Collection> (N039-0006)
DC

>  <InChI Key> (N039-0006)
PEFASEPMJYRQBW-UHFFFAOYSA-N

>  <PERCENTSP3> (N039-0006)
54.5

$$$$

  -ISIS-  -- StrEd -- 

 33 38  0  0  0  0  0  0  0  0999 V2000
    0.8110   -1.0476    0.0000 C   0  0  2  0  0  0  0  0  0  0  0  0
    0.9731   -0.3650    0.0000 C   0  0  2  0  0  0  0  0  0  0  0  0
   -0.6625   -0.3177    0.0000 C   0  0  1  0  0  0  0  0  0  0  0  0
   -0.9059    0.5407    0.0000 C   0  0  2  0  0  0  0  0  0  0  0  0
    0.5340    0.2502    0.0000 C   0  0  0  0  0  0  0  0  0  0  0  0
   -0.5206   -1.0137    0.0000 C   0  0  0  0  0  0  0  0  0  0  0  0
   -0.2299    0.2502    0.0000 C   0  0  0  0  0  0  0  0  0  0  0  0
   -1.0545   -1.5207    0.0000 C   0  0  2  0  0  0  0  0  0  0  0  0
   -1.3113   -0.6420    0.0000 N   0  0  0  0  0  0  0  0  0  0  0  0
    0.1285   -1.3249    0.0000 C   0  0  2  0  0  0  0  0  0  0  0  0
    0.8110    0.8651    0.0000 C   0  0  2  0  0  0  0  0  0  0  0  0
    0.0472    1.3517    0.0000 C   0  0  2  0  0  0  0  0  0  0  0  0
    2.7239    1.1085    0.0000 C   0  0  0  0  0  0  0  0  0  0  0  0
   -0.4733    0.8651    0.0000 C   0  0  0  0  0  0  0  0  0  0  0  0
   -1.6900   -2.0886    0.0000 C   0  0  0  0  0  0  0  0  0  0  0  0
    0.0472    2.4062    0.0000 C   0  0  2  0  0  0  0  0  0  0  0  0
   -1.3654   -0.0879    0.0000 C   0  0  2  0  0  0  0  0  0  0  0  0
   -1.7709   -1.2910    0.0000 C   0  0  0  0  0  0  0  0  0  0  0  0
    1.4937   -1.6964    0.0000 O   0  0  0  0  0  0  0  0  0  0  0  0
    2.0277   -0.3516    0.0000 O   0  0  0  0  0  0  0  0  0  0  0  0
   -1.9129   -0.5610    0.0000 C   0  0  0  0  0  0  0  0  0  0  0  0
    0.1285   -2.2779    0.0000 O   0  0  0  0  0  0  0  0  0  0  0  0
    1.6086    0.8651    0.0000 O   0  0  0  0  0  0  0  0  0  0  0  0
   -0.7976   -2.6360    0.0000 C   0  0  0  0  0  0  0  0  0  0  0  0
   -2.4469   -0.8854    0.0000 C   0  0  0  0  0  0  0  0  0  0  0  0
   -0.6490    3.0417    0.0000 O   0  0  0  0  0  0  0  0  0  0  0  0
   -1.5073    0.6083    0.0000 O   0  0  0  0  0  0  0  0  0  0  0  0
   -1.6358   -3.0081    0.0000 O   0  0  0  0  0  0  0  0  0  0  0  0
    0.9259   -2.7848    0.0000 C   0  0  0  0  0  0  0  0  0  0  0  0
    1.2301    1.4668    0.0000 C   0  0  0  0  0  0  0  0  0  0  0  0
   -0.4733    3.9676    0.0000 C   0  0  0  0  0  0  0  0  0  0  0  0
   -1.6358   -3.9676    0.0000 C   0  0  0  0  0  0  0  0  0  0  0  0
   -2.7239   -1.7640    0.0000 C   0  0  0  0  0  0  0  0  0  0  0  0
  2  1  1  0  0  0  0
  3  4  1  6  0  0  0
  1  4  1  6  0  0  0
  5  2  1  0  0  0  0
  6 10  1  0  0  0  0
  7  3  1  0  0  0  0
  8  6  1  0  0  0  0
  4  9  1  6  0  0  0
 10  1  1  0  0  0  0
 11  5  1  0  0  0  0
 12 16  1  6  0  0  0
  2 13  1  6  0  0  0
 14  7  1  0  0  0  0
 15  9  1  0  0  0  0
 16 13  1  0  0  0  0
 17  3  1  0  0  0  0
 18  8  1  0  0  0  0
 19  1  1  0  0  0  0
  2 20  1  1  0  0  0
 21 17  1  0  0  0  0
 10 22  1  1  0  0  0
 11 23  1  6  0  0  0
  8 24  1  1  0  0  0
 25  9  1  0  0  0  0
 16 26  1  1  0  0  0
 17 27  1  6  0  0  0
 28 24  1  0  0  0  0
 29 22  1  0  0  0  0
 30 23  1  0  0  0  0
 31 26  1  0  0  0  0
 32 28  1  0  0  0  0
 33 25  1  0  0  0  0
  3  6  1  0  0  0  0
  8 15  1  6  0  0  0
  7  5  1  0  0  0  0
 21 18  1  0  0  0  0
 12 14  1  0  0  0  0
 11 12  1  0  0  0  0
M  END
>  <IDNUMBER> (N060-0120)
N060-0120

>  <available> (N060-0120)
332

>  <H_acceptor> (N060-0120)
8

>  <H_donor> (N060-0120)
3

>  <B_rotN> (N060-0120)
9

>  <N_O> (N060-0120)
8

>  <logP> (N060-0120)
-1.56

>  <logD> (N060-0120)
-2.69

>  <logSw> (N060-0120)
-1.85

>  <PSA> (N060-0120)
100.85

>  <Chiral_centers> (N060-0120)
13

>  <Name> (N060-0120)
11-ETHYL-4,6,18-TRIMETHOXY-13-(METHOXYMETHYL)-11-AZAHEXACYCLO[7.7.2.1^(2,5).0^(1,10).0^(3,8).0^(13,17)]NONADECANE-8,9,16-TRIOL

>  <Smile> (N060-0120)
CCN1C2C3(O)C(C4C2(C2C5C3(O)CC(C(C5OC)C2)OC)C(CCC4(C1)COC)O)OC

>  <Collection> (N060-0120)
NC

>  <InChI Key> (N060-0120)
JVBLTQQBEQQLEV-LPHVGPHASA-N

>  <PERCENTSP3> (N060-0120)
100

$$$$

  -ISIS-  -- StrEd -- 

 42 48  0  0  0  0  0  0  0  0999 V2000
    0.7266    1.0072    0.0000 C   0  0  2  0  0  0  0  0  0  0  0  0
    1.1756    0.3692    0.0000 C   0  0  1  0  0  0  0  0  0  0  0  0
   -0.5376    0.4105    0.0000 C   0  0  2  0  0  0  0  0  0  0  0  0
   -0.5376    1.2197    0.0000 C   0  0  1  0  0  0  0  0  0  0  0  0
    1.0101   -0.3574    0.0000 C   0  0  1  0  0  0  0  0  0  0  0  0
   -0.0710    1.0072    0.0000 C   0  0  0  0  0  0  0  0  0  0  0  0
   -0.3840   -0.3279    0.0000 C   0  0  0  0  0  0  0  0  0  0  0  0
   -0.9510   -0.8535    0.0000 C   0  0  2  0  0  0  0  0  0  0  0  0
   -1.2877    0.0561    0.0000 N   0  0  0  0  0  0  0  0  0  0  0  0
    1.0101    1.6450    0.0000 C   0  0  2  0  0  0  0  0  0  0  0  0
    0.2127    2.1708    0.0000 C   0  0  2  0  0  0  0  0  0  0  0  0
    0.1301   -1.9169    0.0000 C   0  0  0  0  0  0  0  0  0  0  0  0
    3.0066    1.9109    0.0000 C   0  0  0  0  0  0  0  0  0  0  0  0
    0.3013   -2.8798    0.0000 C   0  0  0  0  0  0  0  0  0  0  0  0
    0.3013   -0.6527    0.0000 C   0  0  0  0  0  0  0  0  0  0  0  0
   -0.3368    1.6568    0.0000 C   0  0  0  0  0  0  0  0  0  0  0  0
   -0.8213   -1.5861    0.0000 O   0  0  0  0  0  0  0  0  0  0  0  0
   -1.6008   -1.4324    0.0000 C   0  0  0  0  0  0  0  0  0  0  0  0
    0.2127    3.2575    0.0000 C   0  0  2  0  0  0  0  0  0  0  0  0
   -0.4371   -3.5293    0.0000 C   0  0  0  0  0  0  0  0  0  0  0  0
   -1.3764   -3.2045    0.0000 N   0  0  0  0  0  0  0  0  0  0  0  0
   -1.2759    0.6527    0.0000 C   0  0  2  0  0  0  0  0  0  0  0  0
   -2.1088   -3.8543    0.0000 C   0  0  0  0  0  0  0  0  0  0  0  0
   -1.6835   -0.6114    0.0000 C   0  0  0  0  0  0  0  0  0  0  0  0
    0.8919   -1.2613    0.0000 O   0  0  0  0  0  0  0  0  0  0  0  0
    1.4768    0.9893    0.0000 O   0  0  0  0  0  0  0  0  0  0  0  0
    1.9022    0.3692    0.0000 O   0  0  0  0  0  0  0  0  0  0  0  0
   -2.0379   -4.8940    0.0000 O   0  0  0  0  0  0  0  0  0  0  0  0
   -1.8429    0.1565    0.0000 C   0  0  0  0  0  0  0  0  0  0  0  0
    1.8313    1.6450    0.0000 O   0  0  0  0  0  0  0  0  0  0  0  0
   -2.3922   -0.1861    0.0000 C   0  0  0  0  0  0  0  0  0  0  0  0
   -0.5256    3.9251    0.0000 O   0  0  0  0  0  0  0  0  0  0  0  0
    1.2464   -3.2045    0.0000 C   0  0  0  0  0  0  0  0  0  0  0  0
   -1.4295    1.3910    0.0000 O   0  0  0  0  0  0  0  0  0  0  0  0
   -0.2540   -4.5099    0.0000 C   0  0  0  0  0  0  0  0  0  0  0  0
   -3.0066   -3.5293    0.0000 C   0  0  0  0  0  0  0  0  0  0  0  0
    1.4590    2.2830    0.0000 C   0  0  0  0  0  0  0  0  0  0  0  0
   -0.3368    4.8940    0.0000 C   0  0  0  0  0  0  0  0  0  0  0  0
   -2.1384    1.6274    0.0000 C   0  0  0  0  0  0  0  0  0  0  0  0
   -2.6759   -1.1077    0.0000 C   0  0  0  0  0  0  0  0  0  0  0  0
    1.4355   -4.1851    0.0000 C   0  0  0  0  0  0  0  0  0  0  0  0
    0.6793   -4.8467    0.0000 C   0  0  0  0  0  0  0  0  0  0  0  0
  2  1  1  0  0  0  0
  6  3  1  0  0  0  0
  3  4  1  6  0  0  0
  5  2  1  0  0  0  0
  6  1  1  0  0  0  0
  7  3  1  0  0  0  0
  8  7  1  0  0  0  0
  4  9  1  6  0  0  0
 10  1  1  0  0  0  0
 11 10  1  0  0  0  0
 12 17  1  0  0  0  0
  2 13  1  6  0  0  0
 14 12  1  0  0  0  0
 15  5  1  0  0  0  0
 16  6  1  0  0  0  0
  8 17  1  1  0  0  0
  8 18  1  6  0  0  0
 11 19  1  6  0  0  0
 20 14  2  0  0  0  0
 21 20  1  0  0  0  0
 22  3  1  0  0  0  0
 23 21  1  0  0  0  0
 24 29  1  0  0  0  0
 25 12  2  0  0  0  0
  1 26  1  1  0  0  0
  2 27  1  1  0  0  0
 28 23  2  0  0  0  0
 29 22  1  0  0  0  0
 10 30  1  6  0  0  0
 31  9  1  0  0  0  0
 19 32  1  1  0  0  0
 33 14  1  0  0  0  0
 22 34  1  6  0  0  0
 35 20  1  0  0  0  0
 36 23  1  0  0  0  0
 37 30  1  0  0  0  0
 38 32  1  0  0  0  0
 39 34  1  0  0  0  0
 40 31  1  0  0  0  0
 41 33  2  0  0  0  0
 42 41  1  0  0  0  0
 16 11  1  0  0  0  0
  5  4  1  6  0  0  0
 19 13  1  0  0  0  0
  7 15  1  0  0  0  0
 24  8  1  0  0  0  0
 18  9  1  0  0  0  0
 35 42  2  0  0  0  0
M  END
>  <IDNUMBER> (N037-0028)
N037-0028

>  <available> (N037-0028)
388

>  <Saltdata> (N037-0028)
HBr

>  <H_acceptor> (N037-0028)
9

>  <H_donor> (N037-0028)
3

>  <B_rotN> (N037-0028)
11

>  <N_O> (N037-0028)
10

>  <logP> (N037-0028)
0.03

>  <logD> (N037-0028)
-3.44

>  <logSw> (N037-0028)
-3.05

>  <PSA> (N037-0028)
126.79

>  <Chiral_centers> (N037-0028)
12

>  <Name> (N037-0028)
11-ETHYL-3,8-DIHYDROXY-4,6,16-TRIMETHOXY-11-AZAHEXACYCLO[7.7.2.1^(2,5).0^(1,10).0^(3,8).0^(13,17)]NONADECAN-13-YL 2-ACETAMIDOBENZOATE

>  <Smile> (N037-0028)
c1cc(c(C(OC23C4C5(C6C7(C(OC)C(C(CC7(O)C(C5N(C3)CC)C4)OC)C6)O)C(OC)CC2)=O)cc1)NC(=O)C

>  <Collection> (N037-0028)
NC

>  <InChI Key> (N037-0028)
NWBWCXBPKTTZNQ-KBMSBQOASA-N

>  <PERCENTSP3> (N037-0028)
75

$$$$

  -ISIS-  -- StrEd -- 

 34 36  0  0  1  0  0  0  0  0999 V2000
    0.1349   -0.0923    0.0000 C   0  0  0  0  0  0  0  0  0  0  0  0
    1.1760   -0.0923    0.0000 C   0  0  0  0  0  0  0  0  0  0  0  0
   -0.4566    0.7452    0.0000 C   0  0  0  0  0  0  0  0  0  0  0  0
   -1.4410    0.4614    0.0000 C   0  0  0  0  0  0  0  0  0  0  0  0
    1.8148   -0.8873    0.0000 C   0  0  0  0  0  0  0  0  0  0  0  0
   -0.4992   -0.8873    0.0000 C   0  0  0  0  0  0  0  0  0  0  0  0
    1.5686   -1.8668    0.0000 C   0  0  0  0  0  0  0  0  0  0  0  0
    0.6223   -2.2879    0.0000 C   0  0  0  0  0  0  0  0  0  0  0  0
   -2.1743    1.1759    0.0000 C   0  0  0  0  0  0  0  0  0  0  0  0
   -0.2153    1.7248    0.0000 C   0  0  0  0  0  0  0  0  0  0  0  0
   -0.2722   -1.8811    0.0000 C   0  0  0  0  0  0  0  0  0  0  0  0
    1.8384    0.7452    0.0000 C   0  0  1  0  0  0  0  0  0  0  0  0
   -1.9330    2.1364    0.0000 C   0  0  0  0  0  0  0  0  0  0  0  0
    2.5104   -0.0733    0.0000 N   0  0  0  0  0  0  0  0  0  0  0  0
   -0.9676    2.4204    0.0000 C   0  0  0  0  0  0  0  0  0  0  0  0
    2.8606   -0.9442    0.0000 C   0  0  0  0  0  0  0  0  0  0  0  0
    0.6034   -3.3006    0.0000 N   0  0  0  0  0  0  0  0  0  0  0  0
    0.6649    2.1648    0.0000 C   0  0  0  0  0  0  0  0  0  0  0  0
    2.3636   -2.4914    0.0000 O   0  0  0  0  0  0  0  0  0  0  0  0
    1.5877    1.7296    0.0000 C   0  0  0  0  0  0  0  0  0  0  0  0
    2.4205   -1.5971    0.0000 O   0  0  0  0  0  0  0  0  0  0  0  0
   -1.6916   -0.5183    0.0000 O   0  0  0  0  0  0  0  0  0  0  0  0
   -3.1397    0.9156    0.0000 O   0  0  0  0  0  0  0  0  0  0  0  0
   -2.6476    2.8085    0.0000 O   0  0  0  0  0  0  0  0  0  0  0  0
    1.4599   -3.7974    0.0000 C   0  0  0  0  0  0  0  0  0  0  0  0
   -0.2626   -3.7974    0.0000 C   0  0  0  0  0  0  0  0  0  0  0  0
    3.8400   -0.9442    0.0000 C   0  0  0  0  0  0  0  0  0  0  0  0
   -2.6476   -0.7738    0.0000 C   0  0  0  0  0  0  0  0  0  0  0  0
   -3.8400    1.6301    0.0000 C   0  0  0  0  0  0  0  0  0  0  0  0
   -2.4205    3.7974    0.0000 C   0  0  0  0  0  0  0  0  0  0  0  0
    2.3258   -3.3101    0.0000 C   0  0  0  0  0  0  0  0  0  0  0  0
   -1.0670   -3.3006    0.0000 C   0  0  0  0  0  0  0  0  0  0  0  0
    2.6522    1.2704    0.0000 H   0  0  0  0  0  0  0  0  0  0  0  0
    3.4994    0.0828    0.0000 H   0  0  0  0  0  0  0  0  0  0  0  0
  2  1  1  0  0  0  0
  3  1  1  0  0  0  0
  4  3  1  0  0  0  0
  5  2  2  0  0  0  0
  6  1  2  0  0  0  0
  7  5  1  0  0  0  0
  8 11  2  0  0  0  0
  9  4  2  0  0  0  0
 10  3  2  0  0  0  0
 11  6  1  0  0  0  0
 12  2  1  0  0  0  0
 13 15  2  0  0  0  0
 12 14  1  6  0  0  0
 15 10  1  0  0  0  0
 16 14  1  0  0  0  0
 17  8  1  0  0  0  0
 18 10  1  0  0  0  0
 19  7  2  0  0  0  0
 20 12  1  0  0  0  0
 21 16  2  0  0  0  0
 22  4  1  0  0  0  0
 23  9  1  0  0  0  0
 24 13  1  0  0  0  0
 25 17  1  0  0  0  0
 26 17  1  0  0  0  0
 27 16  1  0  0  0  0
 28 22  1  0  0  0  0
 29 23  1  0  0  0  0
 30 24  1  0  0  0  0
 31 25  1  0  0  0  0
 32 26  1  0  0  0  0
 12 33  1  1  0  0  0
 34 14  1  0  0  0  0
  7  8  1  0  0  0  0
 18 20  1  0  0  0  0
  9 13  1  0  0  0  0
M  END
>  <IDNUMBER> (N051-0051)
N051-0051

>  <available> (N051-0051)
62

>  <H_acceptor> (N051-0051)
5

>  <H_donor> (N051-0051)
1

>  <B_rotN> (N051-0051)
8

>  <N_O> (N051-0051)
7

>  <logP> (N051-0051)
2.58

>  <logD> (N051-0051)
-0.7

>  <logSw> (N051-0051)
-0.47

>  <PSA> (N051-0051)
77.1

>  <Chiral_centers> (N051-0051)
1

>  <Name> (N051-0051)
N-[14-(DIETHYLAMINO)-3,4,5-TRIMETHOXY-13-OXOTRICYCLO[9.5.0.0^(2,7)]HEXADECA-1(16),2,4,6,11,14-HEXAEN-10-YL]ACETAMIDE

>  <Smile> (N051-0051)
CCN(c1c(cc2c(cc1)c1c(c(c(cc1CCC2NC(=O)C)OC)OC)OC)=O)CC

>  <Collection> (N051-0051)
DC

>  <InChI Key> (N051-0051)
VBJDWXFOMWSFLB-IBGZPJMESA-N

>  <PERCENTSP3> (N051-0051)
44

$$$$

  -ISIS-  -- StrEd -- 

 94100  0  0  0  0  0  0  0  0999 V2000
    2.9521    4.5327    0.0000 C   0  0  0  0  0  0  0  0  0  0  0  0
    2.3172    3.4438    0.0000 C   0  0  1  0  0  0  0  0  0  0  0  0
    2.9521    3.7929    0.0000 C   0  0  2  0  0  0  0  0  0  0  0  0
    1.0607    3.4438    0.0000 C   0  0  2  0  0  0  0  0  0  0  0  0
   -1.9750   -0.8621    0.0000 C   0  0  0  0  0  0  0  0  0  0  0  0
   -3.9011    1.7340    0.0000 C   0  0  0  0  0  0  0  0  0  0  0  0
   -4.9202   -3.2769    0.0000 C   0  0  0  0  0  0  0  0  0  0  0  0
   -3.9011   -0.8621    0.0000 C   0  0  0  0  0  0  0  0  0  0  0  0
   -6.0091   -4.6307    0.0000 C   0  0  0  0  0  0  0  0  0  0  0  0
   -4.9549    0.3734    0.0000 C   0  0  0  0  0  0  0  0  0  0  0  0
   -4.9202   -5.9917    0.0000 C   0  0  0  0  0  0  0  0  0  0  0  0
   -2.9941   -5.9917    0.0000 C   0  0  0  0  0  0  0  0  0  0  0  0
   -1.9890   -4.6307    0.0000 C   0  0  0  0  0  0  0  0  0  0  0  0
    1.6957    3.7929    0.0000 C   0  0  0  0  0  0  0  0  0  0  0  0
   -0.9490    0.3734    0.0000 C   0  0  0  0  0  0  0  0  0  0  0  0
   -2.9941   -3.2769    0.0000 O   0  0  0  0  0  0  0  0  0  0  0  0
   -1.9750    1.7340    0.0000 O   0  0  0  0  0  0  0  0  0  0  0  0
    2.3172    4.9303    0.0000 C   0  0  0  0  0  0  0  0  0  0  0  0
    1.6957    4.5327    0.0000 C   0  0  0  0  0  0  0  0  0  0  0  0
    1.0607    2.6345    0.0000 C   0  0  0  0  0  0  0  0  0  0  0  0
    3.7408    5.0982    0.0000 C   0  0  0  0  0  0  0  0  0  0  0  0
   -1.9890   -2.6695    0.0000 O   0  0  0  0  0  0  0  0  0  0  0  0
    0.3907    2.2506    0.0000 C   0  0  2  0  0  0  0  0  0  0  0  0
    4.5432    6.4382    0.0000 C   0  0  1  0  0  0  0  0  0  0  0  0
    3.7408    5.9842    0.0000 C   0  0  0  0  0  0  0  0  0  0  0  0
   -4.9202   -2.6414    0.0000 C   0  0  0  0  0  0  0  0  0  0  0  0
   -3.9152    2.4529    0.0000 C   0  0  0  0  0  0  0  0  0  0  0  0
    4.5432    4.6307    0.0000 C   0  0  1  0  0  0  0  0  0  0  0  0
   -0.9490    2.2506    0.0000 O   0  0  0  0  0  0  0  0  0  0  0  0
   -0.2304    2.6345    0.0000 C   0  0  0  0  0  0  0  0  0  0  0  0
    2.3172    2.6345    0.0000 C   0  0  0  0  0  0  0  0  0  0  0  0
    5.2971    6.9404    0.0000 C   0  0  0  0  0  0  0  0  0  0  0  0
   -4.9549   -0.4084    0.0000 O   0  0  0  0  0  0  0  0  0  0  0  0
   -3.9011   -0.0593    0.0000 O   0  0  0  0  0  0  0  0  0  0  0  0
   -4.9202   -5.1539    0.0000 O   0  0  0  0  0  0  0  0  0  0  0  0
   -6.0091   -5.5869    0.0000 O   0  0  0  0  0  0  0  0  0  0  0  0
    0.3907    3.7929    0.0000 C   0  0  0  0  0  0  0  0  0  0  0  0
   -2.9941   -6.9128    0.0000 O   0  0  0  0  0  0  0  0  0  0  0  0
    3.7408    3.2556    0.0000 C   0  0  0  0  0  0  0  0  0  0  0  0
    1.6957    2.2506    0.0000 C   0  0  0  0  0  0  0  0  0  0  0  0
   -6.6299   -6.0055    0.0000 C   0  0  0  0  0  0  0  0  0  0  0  0
   -4.2849   -4.7006    0.0000 C   0  0  0  0  0  0  0  0  0  0  0  0
   -2.3591   -7.2616    0.0000 C   0  0  0  0  0  0  0  0  0  0  0  0
   -3.2104    0.3242    0.0000 C   0  0  0  0  0  0  0  0  0  0  0  0
   -4.9549   -0.9667    0.0000 C   0  0  0  0  0  0  0  0  0  0  0  0
   -4.0686    5.1680    0.0000 C   0  0  0  0  0  0  0  0  0  0  0  0
    8.7308    6.9758    0.0000 C   0  0  0  0  0  0  0  0  0  0  0  0
   -8.5213   -2.1883    0.0000 C   0  0  0  0  0  0  0  0  0  0  0  0
    0.9073    4.9792    0.0000 O   0  0  0  0  0  0  0  0  0  0  0  0
    4.5432    3.7093    0.0000 C   0  0  0  0  0  0  0  0  0  0  0  0
   -0.2304    3.4438    0.0000 C   0  0  0  0  0  0  0  0  0  0  0  0
    5.3319    5.9842    0.0000 C   0  0  0  0  0  0  0  0  0  0  0  0
    5.3319    5.0982    0.0000 C   0  0  0  0  0  0  0  0  0  0  0  0
    7.8792    6.5077    0.0000 C   0  0  0  0  0  0  0  0  0  0  0  0
   -7.5514   -1.9507    0.0000 C   0  0  0  0  0  0  0  0  0  0  0  0
   -4.0686    4.1977    0.0000 C   0  0  0  0  0  0  0  0  0  0  0  0
   -4.2010   -2.1392    0.0000 O   0  0  0  0  0  0  0  0  0  0  0  0
   -3.2455    2.9206    0.0000 O   0  0  0  0  0  0  0  0  0  0  0  0
    5.2971    7.9175    0.0000 O   0  0  0  0  0  0  0  0  0  0  0  0
   -3.2104    5.6492    0.0000 O   0  0  0  0  0  0  0  0  0  0  0  0
   -8.8212   -3.1094    0.0000 O   0  0  0  0  0  0  0  0  0  0  0  0
    8.7308    8.0152    0.0000 O   0  0  0  0  0  0  0  0  0  0  0  0
   -1.6399   -6.9617    0.0000 O   0  0  0  0  0  0  0  0  0  0  0  0
   -7.3976   -5.7403    0.0000 O   0  0  0  0  0  0  0  0  0  0  0  0
   -5.4086   -1.3017    0.0000 O   0  0  0  0  0  0  0  0  0  0  0  0
   -3.4966   -5.0005    0.0000 O   0  0  0  0  0  0  0  0  0  0  0  0
   -2.4916   -0.0105    0.0000 O   0  0  0  0  0  0  0  0  0  0  0  0
   -5.8901   -2.4532    0.0000 N   0  0  0  0  0  0  0  0  0  0  0  0
   -4.8504    2.7882    0.0000 N   0  0  0  0  0  0  0  0  0  0  0  0
    6.1487    6.5077    0.0000 N   0  0  0  0  0  0  0  0  0  0  0  0
    2.3172    4.1420    0.0000 C   0  0  0  0  0  0  0  0  0  0  0  0
    1.0607    4.1977    0.0000 C   0  0  0  0  0  0  0  0  0  0  0  0
    2.9521    2.9413    0.0000 C   0  0  0  0  0  0  0  0  0  0  0  0
   -6.8814   -2.7046    0.0000 C   0  0  0  0  0  0  0  0  0  0  0  0
   -4.8504    3.7231    0.0000 C   0  0  0  0  0  0  0  0  0  0  0  0
    7.0207    6.9758    0.0000 C   0  0  0  0  0  0  0  0  0  0  0  0
   -9.2264   -1.4692    0.0000 O   0  0  0  0  0  0  0  0  0  0  0  0
   -4.8504    5.6492    0.0000 O   0  0  0  0  0  0  0  0  0  0  0  0
    9.6030    6.5077    0.0000 O   0  0  0  0  0  0  0  0  0  0  0  0
   -0.0629    1.3502    0.0000 C   0  0  0  0  0  0  0  0  0  0  0  0
    0.9421    1.4967    0.0000 C   0  0  0  0  0  0  0  0  0  0  0  0
    3.7408    6.9404    0.0000 C   0  0  0  0  0  0  0  0  0  0  0  0
    5.4158    4.0932    0.0000 C   0  0  0  0  0  0  0  0  0  0  0  0
   -6.6299   -6.8083    0.0000 C   0  0  0  0  0  0  0  0  0  0  0  0
   -3.1963    1.1620    0.0000 C   0  0  0  0  0  0  0  0  0  0  0  0
   -4.4875   -1.2807    0.0000 C   0  0  0  0  0  0  0  0  0  0  0  0
   -4.2849   -3.8630    0.0000 C   0  0  0  0  0  0  0  0  0  0  0  0
   -2.3591   -8.0152    0.0000 C   0  0  0  0  0  0  0  0  0  0  0  0
  -10.1891   -1.6508    0.0000 C   0  0  0  0  0  0  0  0  0  0  0  0
   10.4894    6.9895    0.0000 C   0  0  0  0  0  0  0  0  0  0  0  0
   -5.6738    5.1332    0.0000 C   0  0  0  0  0  0  0  0  0  0  0  0
   -6.5254    5.6492    0.0000 C   0  0  0  0  0  0  0  0  0  0  0  0
  -10.4894   -2.5856    0.0000 C   0  0  0  0  0  0  0  0  0  0  0  0
   10.4894    7.9805    0.0000 C   0  0  0  0  0  0  0  0  0  0  0  0
  2  3  1  0  0  0  0
  3  1  1  0  0  0  0
 14  4  1  0  0  0  0
  5 15  1  0  0  0  0
  6 17  1  0  0  0  0
  7 16  1  0  0  0  0
  8  5  1  0  0  0  0
  9  7  1  0  0  0  0
 10  6  1  0  0  0  0
 11 12  1  0  0  0  0
 12 13  1  0  0  0  0
 13 22  1  0  0  0  0
 14 19  1  0  0  0  0
 15 29  1  0  0  0  0
 16 13  1  0  0  0  0
 17 15  1  0  0  0  0
 18  1  2  0  0  0  0
 19 18  1  0  0  0  0
 20  4  1  0  0  0  0
 21  1  1  0  0  0  0
  5 22  1  0  0  0  0
 23 20  1  0  0  0  0
 24 25  1  0  0  0  0
 25 21  1  0  0  0  0
  7 26  1  0  0  0  0
  6 27  1  0  0  0  0
 28 21  1  0  0  0  0
 30 29  1  0  0  0  0
 30 51  1  0  0  0  0
 31  2  1  0  0  0  0
 32 24  1  0  0  0  0
 10 33  1  0  0  0  0
  8 34  1  0  0  0  0
 11 35  1  0  0  0  0
  9 36  1  0  0  0  0
 37  4  1  0  0  0  0
 12 38  1  0  0  0  0
 39  3  1  0  0  0  0
 40 31  1  0  0  0  0
 41 36  1  0  0  0  0
 42 35  1  0  0  0  0
 43 38  1  0  0  0  0
 44 34  1  0  0  0  0
 45 33  1  0  0  0  0
 46 56  1  0  0  0  0
 47 54  1  0  0  0  0
 48 55  1  0  0  0  0
 49 19  2  0  0  0  0
 50 28  1  0  0  0  0
 51 37  1  0  0  0  0
 52 53  1  0  0  0  0
 53 28  1  0  0  0  0
 54 76  1  0  0  0  0
 55 74  1  0  0  0  0
 56 75  1  0  0  0  0
 57 26  2  0  0  0  0
 58 27  2  0  0  0  0
 59 32  2  0  0  0  0
 60 46  2  0  0  0  0
 61 48  2  0  0  0  0
 62 47  2  0  0  0  0
 63 43  2  0  0  0  0
 64 41  2  0  0  0  0
 65 45  2  0  0  0  0
 66 42  2  0  0  0  0
 67 44  2  0  0  0  0
 68 26  1  0  0  0  0
 69 27  1  0  0  0  0
 70 32  1  0  0  0  0
  2 71  1  1  0  0  0
  4 72  1  1  0  0  0
  3 73  1  6  0  0  0
 74 68  1  0  0  0  0
 75 69  1  0  0  0  0
 76 70  1  0  0  0  0
 77 48  1  0  0  0  0
 78 46  1  0  0  0  0
 79 47  1  0  0  0  0
 23 80  1  1  0  0  0
 23 81  1  6  0  0  0
 24 82  1  6  0  0  0
 28 83  1  1  0  0  0
 84 41  1  0  0  0  0
 85 44  1  0  0  0  0
 86 45  1  0  0  0  0
 87 42  1  0  0  0  0
 88 43  1  0  0  0  0
 89 77  1  0  0  0  0
 90 79  1  0  0  0  0
 91 78  1  0  0  0  0
 92 91  1  0  0  0  0
 93 89  1  0  0  0  0
 94 90  1  0  0  0  0
 50 39  1  0  0  0  0
 14  2  1  0  0  0  0
 52 24  1  0  0  0  0
 20 40  1  0  0  0  0
 30 23  1  0  0  0  0
  8 10  1  0  0  0  0
  9 11  1  0  0  0  0
M  END
>  <IDNUMBER> (N016-0022)
N016-0022

>  <available> (N016-0022)
8

>  <H_acceptor> (N016-0022)
24

>  <H_donor> (N016-0022)
3

>  <B_rotN> (N016-0022)
35

>  <N_O> (N016-0022)
27

>  <logP> (N016-0022)
3.71

>  <logD> (N016-0022)
7.3

>  <logSw> (N016-0022)
-10.13

>  <PSA> (N016-0022)
351.69

>  <Chiral_centers> (N016-0022)
19

>  <Name> (N016-0022)
ethyl 3-[(10-{[4,5-bis(acetyloxy)-6-[(3-ethoxy-3-oxopropyl)carbamoyl]-3-{[3,4,5-tris(acetyloxy)-6-[(3-ethoxy-3-oxopropyl)carbamoyl]oxan-2-yl]oxy}oxan-2-yl]oxy}-2,4a,6a,6b,9,9,12a-heptamethyl-13-oxo-1,
2,3,4,4a,5,6,6a,6b,7,8,8a,9,10,11,12,12a,12b,13,14b-icosahydropicen-2-yl)formamido]propanoate

>  <Smile> (N016-0022)
CCOC(CCNC(C1(CC2C3=CC(C4C(C)(CCC5C4(C)CCC(C5(C)C)OC4C(OC5C(C(C(C(O5)C(=O)NCCC(=O)OCC)OC(=O)C)OC(=O)C)OC(=O)C)C(C(C(O4)C(=O)NCCC(=O)OCC)OC(=O)C)OC(=O)C)C3(C)CCC2(C)CC1)=O)C)=O)=O

>  <Collection> (N016-0022)
DC

>  <InChI Key> (N016-0022)
SCQYZXGRDMUQMU-RDGHFYAUSA-N

>  <PERCENTSP3> (N016-0022)
79.1

$$$$

  -ISIS-  -- StrEd -- 

 88 94  0  0  0  0  0  0  0  0999 V2000
    1.8354    2.0127    0.0000 C   0  0  0  0  0  0  0  0  0  0  0  0
    1.0842    0.6964    0.0000 C   0  0  1  0  0  0  0  0  0  0  0  0
    1.8354    1.1181    0.0000 C   0  0  2  0  0  0  0  0  0  0  0  0
   -0.4345    0.6964    0.0000 C   0  0  2  0  0  0  0  0  0  0  0  0
   -4.7295   -1.1094    0.0000 C   0  0  0  0  0  0  0  0  0  0  0  0
   -5.3117   -4.7295    0.0000 C   0  0  0  0  0  0  0  0  0  0  0  0
   -3.5311   -2.7041    0.0000 C   0  0  0  0  0  0  0  0  0  0  0  0
    0.3334    1.1181    0.0000 C   0  0  0  0  0  0  0  0  0  0  0  0
   -3.5143   -5.5649    0.0000 C   0  0  0  0  0  0  0  0  0  0  0  0
   -2.8814   -1.9365    0.0000 C   0  0  0  0  0  0  0  0  0  0  0  0
   -4.1389   -4.7295    0.0000 O   0  0  0  0  0  0  0  0  0  0  0  0
   -3.5311   -1.1094    0.0000 O   0  0  0  0  0  0  0  0  0  0  0  0
    1.0842    2.4767    0.0000 C   0  0  0  0  0  0  0  0  0  0  0  0
   -4.1389   -6.3916    0.0000 C   0  0  0  0  0  0  0  0  0  0  0  0
    0.3334    2.0127    0.0000 C   0  0  0  0  0  0  0  0  0  0  0  0
   -5.3792   -1.9365    0.0000 C   0  0  0  0  0  0  0  0  0  0  0  0
   -6.0038   -5.5649    0.0000 C   0  0  0  0  0  0  0  0  0  0  0  0
   -4.7295   -2.7041    0.0000 C   0  0  0  0  0  0  0  0  0  0  0  0
   -0.4345   -0.2740    0.0000 C   0  0  0  0  0  0  0  0  0  0  0  0
    2.8058    2.6792    0.0000 C   0  0  0  0  0  0  0  0  0  0  0  0
   -5.3117   -6.3916    0.0000 C   0  0  0  0  0  0  0  0  0  0  0  0
   -4.7295   -0.6031    0.0000 C   0  0  0  0  0  0  0  0  0  0  0  0
   -5.3117   -4.2063    0.0000 C   0  0  0  0  0  0  0  0  0  0  0  0
   -3.5143   -4.0798    0.0000 O   0  0  0  0  0  0  0  0  0  0  0  0
   -1.2447   -0.7636    0.0000 C   0  0  1  0  0  0  0  0  0  0  0  0
    4.6707    4.9323    0.0000 C   0  0  0  0  0  0  0  0  0  0  0  0
    3.7594    4.2993    0.0000 C   0  0  2  0  0  0  0  0  0  0  0  0
    2.8058    3.7762    0.0000 C   0  0  0  0  0  0  0  0  0  0  0  0
   -6.0458   -3.8182    0.0000 N   0  0  0  0  0  0  0  0  0  0  0  0
   -5.2355   -0.3331    0.0000 N   0  0  0  0  0  0  0  0  0  0  0  0
    3.7594    2.1309    0.0000 C   0  0  1  0  0  0  0  0  0  0  0  0
   -2.8814   -0.7636    0.0000 O   0  0  0  0  0  0  0  0  0  0  0  0
   -2.0124   -0.2740    0.0000 C   0  0  0  0  0  0  0  0  0  0  0  0
    6.1304    4.1983    0.0000 N   0  0  0  0  0  0  0  0  0  0  0  0
    1.0842   -0.2740    0.0000 C   0  0  0  0  0  0  0  0  0  0  0  0
   -1.2447    1.1181    0.0000 C   0  0  0  0  0  0  0  0  0  0  0  0
    2.8058    0.4768    0.0000 C   0  0  0  0  0  0  0  0  0  0  0  0
    0.3334   -0.7636    0.0000 C   0  0  0  0  0  0  0  0  0  0  0  0
   -7.0333   -2.8307    0.0000 C   0  0  0  0  0  0  0  0  0  0  0  0
   -6.2066    0.6373    0.0000 C   0  0  0  0  0  0  0  0  0  0  0  0
    6.4507    5.5397    0.0000 C   0  0  0  0  0  0  0  0  0  0  0  0
   -7.0333   -3.8182    0.0000 C   0  0  0  0  0  0  0  0  0  0  0  0
   -5.2355    0.6373    0.0000 C   0  0  0  0  0  0  0  0  0  0  0  0
    6.9574    4.6875    0.0000 C   0  0  0  0  0  0  0  0  0  0  0  0
   -0.6199    2.5613    0.0000 O   0  0  0  0  0  0  0  0  0  0  0  0
   -4.6872   -3.6157    0.0000 O   0  0  0  0  0  0  0  0  0  0  0  0
   -4.1221   -0.2317    0.0000 O   0  0  0  0  0  0  0  0  0  0  0  0
    3.7594    1.0171    0.0000 C   0  0  0  0  0  0  0  0  0  0  0  0
   -2.0124    0.6964    0.0000 C   0  0  0  0  0  0  0  0  0  0  0  0
    4.6707    6.1052    0.0000 O   0  0  0  0  0  0  0  0  0  0  0  0
    4.7127    3.7762    0.0000 C   0  0  0  0  0  0  0  0  0  0  0  0
    4.7127    2.6792    0.0000 C   0  0  0  0  0  0  0  0  0  0  0  0
    5.5817    5.5397    0.0000 O   0  0  0  0  0  0  0  0  0  0  0  0
   -6.1895   -2.3246    0.0000 O   0  0  0  0  0  0  0  0  0  0  0  0
   -6.6955   -0.2152    0.0000 O   0  0  0  0  0  0  0  0  0  0  0  0
   -4.1389   -7.2190    0.0000 O   0  0  0  0  0  0  0  0  0  0  0  0
   -6.0038   -6.6112    0.0000 O   0  0  0  0  0  0  0  0  0  0  0  0
   -5.3537   -2.8646    0.0000 O   0  0  0  0  0  0  0  0  0  0  0  0
   -4.7295   -1.8774    0.0000 O   0  0  0  0  0  0  0  0  0  0  0  0
   -5.3117   -5.5649    0.0000 O   0  0  0  0  0  0  0  0  0  0  0  0
    1.0842    1.5486    0.0000 C   0  0  0  0  0  0  0  0  0  0  0  0
   -0.4345    1.6077    0.0000 C   0  0  0  0  0  0  0  0  0  0  0  0
    1.8522    0.0890    0.0000 C   0  0  0  0  0  0  0  0  0  0  0  0
    6.9406    6.3671    0.0000 O   0  0  0  0  0  0  0  0  0  0  0  0
   -7.8432   -2.3246    0.0000 O   0  0  0  0  0  0  0  0  0  0  0  0
   -6.7126    1.4640    0.0000 O   0  0  0  0  0  0  0  0  0  0  0  0
    7.4634    3.8353    0.0000 C   0  0  0  0  0  0  0  0  0  0  0  0
   -7.9866   -3.8182    0.0000 C   0  0  0  0  0  0  0  0  0  0  0  0
   -5.2355    1.6077    0.0000 C   0  0  0  0  0  0  0  0  0  0  0  0
   -0.5782   -1.6749    0.0000 C   0  0  0  0  0  0  0  0  0  0  0  0
   -1.7931   -1.8519    0.0000 C   0  0  0  0  0  0  0  0  0  0  0  0
   -4.3413    3.0674    0.0000 S   0  0  0  0  0  0  0  0  0  0  0  0
   -9.4633   -4.6701    0.0000 S   0  0  0  0  0  0  0  0  0  0  0  0
    8.9657    2.9831    0.0000 S   0  0  0  0  0  0  0  0  0  0  0  0
    2.8058    4.9068    0.0000 C   0  0  0  0  0  0  0  0  0  0  0  0
    4.8309    1.4895    0.0000 C   0  0  0  0  0  0  0  0  0  0  0  0
   -4.3668    2.0714    0.0000 C   0  0  0  0  0  0  0  0  0  0  0  0
   -8.4761   -4.6701    0.0000 C   0  0  0  0  0  0  0  0  0  0  0  0
    8.4593    3.8353    0.0000 C   0  0  0  0  0  0  0  0  0  0  0  0
    9.9529    2.9831    0.0000 C   0  0  0  0  0  0  0  0  0  0  0  0
   -9.9529   -5.5226    0.0000 C   0  0  0  0  0  0  0  0  0  0  0  0
   -3.4891    3.5485    0.0000 C   0  0  0  0  0  0  0  0  0  0  0  0
   -8.7206   -2.7890    0.0000 C   0  0  0  0  0  0  0  0  0  0  0  0
   -7.6659    1.4895    0.0000 C   0  0  0  0  0  0  0  0  0  0  0  0
    6.4678    7.2190    0.0000 C   0  0  0  0  0  0  0  0  0  0  0  0
    7.7844    5.1687    0.0000 H   0  0  0  0  0  0  0  0  0  0  0  0
   -7.0333   -4.8138    0.0000 H   0  0  0  0  0  0  0  0  0  0  0  0
   -4.2651    0.6373    0.0000 H   0  0  0  0  0  0  0  0  0  0  0  0
  2  3  1  0  0  0  0
  3  1  1  0  0  0  0
  8  4  1  0  0  0  0
  5 12  1  0  0  0  0
  6 11  1  0  0  0  0
  7 10  1  0  0  0  0
  8 15  1  0  0  0  0
  9 24  1  0  0  0  0
 10 32  1  0  0  0  0
 11  9  1  0  0  0  0
 12 10  1  0  0  0  0
 13  1  2  0  0  0  0
 14  9  1  0  0  0  0
 15 13  1  0  0  0  0
 16  5  1  0  0  0  0
 17 21  1  0  0  0  0
 18  7  1  0  0  0  0
 19  4  1  0  0  0  0
 20  1  1  0  0  0  0
 21 14  1  0  0  0  0
  5 22  1  0  0  0  0
  6 23  1  0  0  0  0
  7 24  1  0  0  0  0
 25 19  1  0  0  0  0
 26 27  1  0  0  0  0
 27 28  1  0  0  0  0
 28 20  1  0  0  0  0
 29 23  1  0  0  0  0
 30 22  1  0  0  0  0
 31 20  1  0  0  0  0
 33 32  1  0  0  0  0
 33 49  1  0  0  0  0
 34 26  1  0  0  0  0
 35  2  1  0  0  0  0
 36  4  1  0  0  0  0
 37  3  1  0  0  0  0
 38 35  1  0  0  0  0
 42 39  1  0  0  0  0
 43 40  1  0  0  0  0
 41 44  1  0  0  0  0
 42 29  1  0  0  0  0
 43 30  1  0  0  0  0
 44 34  1  0  0  0  0
 45 15  2  0  0  0  0
 46 23  2  0  0  0  0
 47 22  2  0  0  0  0
 48 31  1  0  0  0  0
 49 36  1  0  0  0  0
 50 26  2  0  0  0  0
 51 52  1  0  0  0  0
 52 31  1  0  0  0  0
 53 41  2  0  0  0  0
 54 39  2  0  0  0  0
 55 40  2  0  0  0  0
 14 56  1  0  0  0  0
 17 57  1  0  0  0  0
 16 58  1  0  0  0  0
 18 59  1  0  0  0  0
 21 60  1  0  0  0  0
  2 61  1  1  0  0  0
  4 62  1  1  0  0  0
  3 63  1  6  0  0  0
 64 41  1  0  0  0  0
 65 39  1  0  0  0  0
 66 40  1  0  0  0  0
 44 67  1  0  0  0  0
 68 42  1  0  0  0  0
 69 43  1  0  0  0  0
 25 70  1  6  0  0  0
 25 71  1  1  0  0  0
 72 77  1  0  0  0  0
 73 78  1  0  0  0  0
 74 79  1  0  0  0  0
 27 75  1  6  0  0  0
 31 76  1  1  0  0  0
 77 69  1  0  0  0  0
 78 68  1  0  0  0  0
 79 67  1  0  0  0  0
 80 74  1  0  0  0  0
 81 73  1  0  0  0  0
 82 72  1  0  0  0  0
 83 65  1  0  0  0  0
 84 66  1  0  0  0  0
 85 64  1  0  0  0  0
 86 44  1  0  0  0  0
 87 42  1  0  0  0  0
 88 43  1  0  0  0  0
 48 37  1  0  0  0  0
  8  2  1  0  0  0  0
 51 27  1  0  0  0  0
 19 38  1  0  0  0  0
 33 25  1  0  0  0  0
 18 16  1  0  0  0  0
 17  6  1  0  0  0  0
M  END
>  <IDNUMBER> (N016-0043)
N016-0043

>  <available> (N016-0043)
640

>  <H_acceptor> (N016-0043)
22

>  <H_donor> (N016-0043)
8

>  <B_rotN> (N016-0043)
33

>  <N_O> (N016-0043)
22

>  <logP> (N016-0043)
2.46

>  <logD> (N016-0043)
4.24

>  <logSw> (N016-0043)
-8.67

>  <PSA> (N016-0043)
321.34

>  <Chiral_centers> (N016-0043)
22

>  <Name> (N016-0043)
methyl 2-({10-[(4,5-dihydroxy-6-{[1-methoxy-4-(methylsulfanyl)-1-oxobutan-2-yl]carbamoyl}-3-[(3,4,5-trihydroxy-6-{[1-methoxy-4-(methylsulfanyl)-1-oxobutan-2-yl]carbamoyl}oxan-2-yl)oxy]oxan-2-yl)oxy]-2
,4a,6a,6b,9,9,12a-heptamethyl-13-oxo-1,2,3,4,4a,5,6,6a,6b,7,8,8a,9,10,11,12,12a,12b,13,14b-icosahydropicen-2-yl}formamido)-4-(methylsulfanyl)butanoate

>  <Smile> (N016-0043)
COC(C(NC(C1(CC2C3=CC(C4C(C)(CCC5C4(C)CCC(C5(C)C)OC4C(OC5OC(C(NC(C(=O)OC)CCSC)=O)C(C(C5O)O)O)C(C(C(O4)C(NC(C(=O)OC)CCSC)=O)O)O)C3(C)CCC2(C)CC1)=O)C)=O)CCSC)=O

>  <Collection> (N016-0043)
DC

>  <InChI Key> (N016-0043)
WPVWKRPZRBPQKY-SDNDOKAXSA-N

>  <PERCENTSP3> (N016-0043)
85

$$$$

  -ISIS-  -- StrEd -- 

 94103  0  0  0  0  0  0  0  0999 V2000
    2.7548    4.5553    0.0000 C   0  0  0  0  0  0  0  0  0  0  0  0
    2.1234    3.4729    0.0000 C   0  0  1  0  0  0  0  0  0  0  0  0
    2.7548    3.8196    0.0000 C   0  0  2  0  0  0  0  0  0  0  0  0
    0.8744    3.4729    0.0000 C   0  0  2  0  0  0  0  0  0  0  0  0
   -2.1442   -0.8083    0.0000 C   0  0  0  0  0  0  0  0  0  0  0  0
   -4.0590    1.7732    0.0000 C   0  0  0  0  0  0  0  0  0  0  0  0
   -5.0721   -3.2090    0.0000 C   0  0  0  0  0  0  0  0  0  0  0  0
   -4.0590   -0.8083    0.0000 C   0  0  0  0  0  0  0  0  0  0  0  0
   -6.1545   -4.5553    0.0000 C   0  0  0  0  0  0  0  0  0  0  0  0
   -5.1068    0.4269    0.0000 C   0  0  0  0  0  0  0  0  0  0  0  0
   -5.0721   -5.9015    0.0000 C   0  0  0  0  0  0  0  0  0  0  0  0
   -3.1570   -5.9015    0.0000 C   0  0  0  0  0  0  0  0  0  0  0  0
   -2.1578   -4.5553    0.0000 C   0  0  0  0  0  0  0  0  0  0  0  0
    1.5055    3.8196    0.0000 C   0  0  0  0  0  0  0  0  0  0  0  0
   -1.1238    0.4269    0.0000 C   0  0  0  0  0  0  0  0  0  0  0  0
   -3.1570   -3.2090    0.0000 O   0  0  0  0  0  0  0  0  0  0  0  0
   -2.1442    1.7732    0.0000 O   0  0  0  0  0  0  0  0  0  0  0  0
    2.1234    4.9507    0.0000 C   0  0  0  0  0  0  0  0  0  0  0  0
    1.5055    4.5553    0.0000 C   0  0  0  0  0  0  0  0  0  0  0  0
    0.8744    2.6749    0.0000 C   0  0  0  0  0  0  0  0  0  0  0  0
    3.5387    5.1173    0.0000 C   0  0  0  0  0  0  0  0  0  0  0  0
   -2.1578   -2.6055    0.0000 O   0  0  0  0  0  0  0  0  0  0  0  0
    0.2083    2.2865    0.0000 C   0  0  1  0  0  0  0  0  0  0  0  0
    4.3367    6.4498    0.0000 C   0  0  1  0  0  0  0  0  0  0  0  0
   -4.0731    2.4874    0.0000 C   0  0  0  0  0  0  0  0  0  0  0  0
   -5.0721   -2.5709    0.0000 C   0  0  0  0  0  0  0  0  0  0  0  0
    3.5387    6.0055    0.0000 C   0  0  0  0  0  0  0  0  0  0  0  0
    4.3367    4.6522    0.0000 C   0  0  1  0  0  0  0  0  0  0  0  0
   -1.1238    2.2865    0.0000 O   0  0  0  0  0  0  0  0  0  0  0  0
   -0.4093    2.6749    0.0000 C   0  0  0  0  0  0  0  0  0  0  0  0
    5.0859    6.9493    0.0000 C   0  0  0  0  0  0  0  0  0  0  0  0
    2.1234    2.6749    0.0000 C   0  0  0  0  0  0  0  0  0  0  0  0
   -5.1068   -0.3573    0.0000 O   0  0  0  0  0  0  0  0  0  0  0  0
   -4.0590   -0.0103    0.0000 O   0  0  0  0  0  0  0  0  0  0  0  0
   -5.0721   -5.0686    0.0000 O   0  0  0  0  0  0  0  0  0  0  0  0
   -6.1545   -5.5061    0.0000 O   0  0  0  0  0  0  0  0  0  0  0  0
    0.2083    3.8196    0.0000 C   0  0  0  0  0  0  0  0  0  0  0  0
   -3.1570   -6.8173    0.0000 O   0  0  0  0  0  0  0  0  0  0  0  0
    3.5387    3.2854    0.0000 C   0  0  0  0  0  0  0  0  0  0  0  0
    1.5055    2.2865    0.0000 C   0  0  0  0  0  0  0  0  0  0  0  0
   -6.7721   -5.9224    0.0000 C   0  0  0  0  0  0  0  0  0  0  0  0
   -4.4407   -4.6246    0.0000 C   0  0  0  0  0  0  0  0  0  0  0  0
   -2.5259   -7.1711    0.0000 C   0  0  0  0  0  0  0  0  0  0  0  0
   -3.3721    0.3711    0.0000 C   0  0  0  0  0  0  0  0  0  0  0  0
   -5.1068   -0.9055    0.0000 C   0  0  0  0  0  0  0  0  0  0  0  0
   -5.0028    2.8206    0.0000 O   0  0  0  0  0  0  0  0  0  0  0  0
   -6.0364   -2.3902    0.0000 O   0  0  0  0  0  0  0  0  0  0  0  0
    5.9327    6.5188    0.0000 O   0  0  0  0  0  0  0  0  0  0  0  0
    0.7216    5.0060    0.0000 O   0  0  0  0  0  0  0  0  0  0  0  0
    4.3367    3.7364    0.0000 C   0  0  0  0  0  0  0  0  0  0  0  0
   -0.4093    3.4729    0.0000 C   0  0  0  0  0  0  0  0  0  0  0  0
    5.1209    6.0055    0.0000 C   0  0  0  0  0  0  0  0  0  0  0  0
    5.1209    5.1173    0.0000 C   0  0  0  0  0  0  0  0  0  0  0  0
   -3.4068    2.9525    0.0000 O   0  0  0  0  0  0  0  0  0  0  0  0
   -4.3575   -2.0711    0.0000 O   0  0  0  0  0  0  0  0  0  0  0  0
    5.0859    7.9206    0.0000 O   0  0  0  0  0  0  0  0  0  0  0  0
   -3.6568   -4.9228    0.0000 O   0  0  0  0  0  0  0  0  0  0  0  0
   -2.6575    0.0382    0.0000 O   0  0  0  0  0  0  0  0  0  0  0  0
   -1.8111   -6.8726    0.0000 O   0  0  0  0  0  0  0  0  0  0  0  0
   -7.5354   -5.6518    0.0000 O   0  0  0  0  0  0  0  0  0  0  0  0
   -5.5578   -1.2387    0.0000 O   0  0  0  0  0  0  0  0  0  0  0  0
    2.1234    4.1736    0.0000 C   0  0  0  0  0  0  0  0  0  0  0  0
    0.8744    4.2221    0.0000 C   0  0  0  0  0  0  0  0  0  0  0  0
    2.7548    2.9734    0.0000 C   0  0  0  0  0  0  0  0  0  0  0  0
   -7.0218   -2.6399    0.0000 C   0  0  0  0  0  0  0  0  0  0  0  0
   -5.0028    3.7573    0.0000 C   0  0  0  0  0  0  0  0  0  0  0  0
    6.8000    6.9839    0.0000 C   0  0  0  0  0  0  0  0  0  0  0  0
    0.7563    1.5372    0.0000 C   0  0  0  0  0  0  0  0  0  0  0  0
   -0.2430    1.3915    0.0000 C   0  0  0  0  0  0  0  0  0  0  0  0
   -5.8560    4.2568    0.0000 C   0  0  0  0  0  0  0  0  0  0  0  0
   -7.7020   -1.9392    0.0000 C   0  0  0  0  0  0  0  0  0  0  0  0
    7.6532    6.4706    0.0000 C   0  0  0  0  0  0  0  0  0  0  0  0
    3.5387    6.9493    0.0000 C   0  0  0  0  0  0  0  0  0  0  0  0
    5.2043    4.1181    0.0000 C   0  0  0  0  0  0  0  0  0  0  0  0
   -3.3583    1.2040    0.0000 C   0  0  0  0  0  0  0  0  0  0  0  0
   -4.6420   -1.2246    0.0000 C   0  0  0  0  0  0  0  0  0  0  0  0
   -4.4407   -3.7919    0.0000 C   0  0  0  0  0  0  0  0  0  0  0  0
   -2.5259   -7.9206    0.0000 C   0  0  0  0  0  0  0  0  0  0  0  0
   -6.7721   -6.7201    0.0000 C   0  0  0  0  0  0  0  0  0  0  0  0
   -5.8560    5.2701    0.0000 C   0  0  0  0  0  0  0  0  0  0  0  0
   -7.4523   -0.9611    0.0000 C   0  0  0  0  0  0  0  0  0  0  0  0
   -8.6528   -2.1892    0.0000 C   0  0  0  0  0  0  0  0  0  0  0  0
   -6.7233    3.7573    0.0000 C   0  0  0  0  0  0  0  0  0  0  0  0
    7.6532    5.4502    0.0000 C   0  0  0  0  0  0  0  0  0  0  0  0
    8.5138    6.9493    0.0000 C   0  0  0  0  0  0  0  0  0  0  0  0
   -7.6045    4.2568    0.0000 C   0  0  0  0  0  0  0  0  0  0  0  0
   -6.7374    5.7696    0.0000 C   0  0  0  0  0  0  0  0  0  0  0  0
   -8.1527   -0.2395    0.0000 C   0  0  0  0  0  0  0  0  0  0  0  0
    8.5138    4.9369    0.0000 C   0  0  0  0  0  0  0  0  0  0  0  0
    9.4020    6.4706    0.0000 C   0  0  0  0  0  0  0  0  0  0  0  0
   -9.4020   -1.5093    0.0000 C   0  0  0  0  0  0  0  0  0  0  0  0
    9.4020    5.4502    0.0000 C   0  0  0  0  0  0  0  0  0  0  0  0
   -9.1382   -0.5239    0.0000 C   0  0  0  0  0  0  0  0  0  0  0  0
   -7.6186    5.2563    0.0000 C   0  0  0  0  0  0  0  0  0  0  0  0
  2  3  1  0  0  0  0
  3  1  1  0  0  0  0
 14  4  1  0  0  0  0
  5 15  1  0  0  0  0
  6 17  1  0  0  0  0
  7 16  1  0  0  0  0
  8  5  1  0  0  0  0
  9  7  1  0  0  0  0
 10  6  1  0  0  0  0
 11 12  1  0  0  0  0
 12 13  1  0  0  0  0
 13 22  1  0  0  0  0
 14 19  1  0  0  0  0
 15 29  1  0  0  0  0
 16 13  1  0  0  0  0
 17 15  1  0  0  0  0
 18  1  2  0  0  0  0
 19 18  1  0  0  0  0
 20  4  1  0  0  0  0
 21  1  1  0  0  0  0
  5 22  1  0  0  0  0
 23 20  1  0  0  0  0
 24 27  1  0  0  0  0
  6 25  1  0  0  0  0
  7 26  1  0  0  0  0
 27 21  1  0  0  0  0
 28 21  1  0  0  0  0
 30 29  1  0  0  0  0
 30 51  1  0  0  0  0
 31 24  1  0  0  0  0
 32  2  1  0  0  0  0
 10 33  1  0  0  0  0
  8 34  1  0  0  0  0
 11 35  1  0  0  0  0
  9 36  1  0  0  0  0
 37  4  1  0  0  0  0
 12 38  1  0  0  0  0
 39  3  1  0  0  0  0
 40 32  1  0  0  0  0
 41 36  1  0  0  0  0
 42 35  1  0  0  0  0
 43 38  1  0  0  0  0
 44 34  1  0  0  0  0
 45 33  1  0  0  0  0
 46 25  1  0  0  0  0
 47 26  1  0  0  0  0
 48 31  1  0  0  0  0
 49 19  2  0  0  0  0
 50 28  1  0  0  0  0
 51 37  1  0  0  0  0
 52 53  1  0  0  0  0
 53 28  1  0  0  0  0
 54 25  2  0  0  0  0
 55 26  2  0  0  0  0
 56 31  2  0  0  0  0
 57 42  2  0  0  0  0
 58 44  2  0  0  0  0
 59 43  2  0  0  0  0
 60 41  2  0  0  0  0
 61 45  2  0  0  0  0
  2 62  1  1  0  0  0
  4 63  1  1  0  0  0
  3 64  1  6  0  0  0
 65 47  1  0  0  0  0
 66 46  1  0  0  0  0
 67 48  1  0  0  0  0
 23 68  1  6  0  0  0
 23 69  1  1  0  0  0
 70 66  1  0  0  0  0
 71 65  1  0  0  0  0
 72 67  1  0  0  0  0
 24 73  1  6  0  0  0
 28 74  1  1  0  0  0
 75 44  1  0  0  0  0
 76 45  1  0  0  0  0
 77 42  1  0  0  0  0
 78 43  1  0  0  0  0
 79 41  1  0  0  0  0
 80 70  2  0  0  0  0
 81 71  2  0  0  0  0
 82 71  1  0  0  0  0
 83 70  1  0  0  0  0
 84 72  2  0  0  0  0
 85 72  1  0  0  0  0
 86 83  2  0  0  0  0
 87 80  1  0  0  0  0
 88 81  1  0  0  0  0
 89 84  1  0  0  0  0
 90 85  2  0  0  0  0
 91 82  2  0  0  0  0
 92 90  1  0  0  0  0
 93 91  1  0  0  0  0
 94 86  1  0  0  0  0
 50 39  1  0  0  0  0
 14  2  1  0  0  0  0
 52 24  1  0  0  0  0
 20 40  1  0  0  0  0
 30 23  1  0  0  0  0
 92 89  2  0  0  0  0
  8 10  1  0  0  0  0
  9 11  1  0  0  0  0
 94 87  2  0  0  0  0
 93 88  2  0  0  0  0
M  END
>  <IDNUMBER> (N016-0050)
N016-0050

>  <available> (N016-0050)
105

>  <H_acceptor> (N016-0050)
21

>  <H_donor> (N016-0050)
0

>  <B_rotN> (N016-0050)
26

>  <N_O> (N016-0050)
21

>  <logP> (N016-0050)
9.49

>  <logD> (N016-0050)
11.37

>  <logSw> (N016-0050)
-11.69

>  <PSA> (N016-0050)
264.39

>  <Chiral_centers> (N016-0050)
19

>  <Name> (N016-0050)
benzyl 3,4-bis(acetyloxy)-6-({11-[(benzyloxy)carbonyl]-4,4,6a,6b,8a,11,14b-heptamethyl-14-oxo-1,2,3,4,4a,5,6,6a,6b,7,8,8a,9,10,11,12,12a,14,14a,14b-icosahydropicen-3-yl}oxy)-5-{[3,4,5-tris(acetyloxy)-
6-[(benzyloxy)carbonyl]oxan-2-yl]oxy}oxane-2-carboxylate

>  <Smile> (N016-0050)
c1ccc(COC(C2OC(C(OC3C(C(C(C(O3)C(OCc3ccccc3)=O)OC(=O)C)OC(=O)C)OC(=O)C)C(C2OC(=O)C)OC(=O)C)OC2C(C3C(C4C(C)(CC3)C3(C(C5CC(C(OCc6ccccc6)=O)(C)CCC5(CC3)C)=CC4=O)C)(C)CC2)(C)C)=O)cc1

>  <Collection> (N016-0050)
DC

>  <InChI Key> (N016-0050)
FJLSLKWZCAMDOM-MIDGHGIPSA-N

>  <PERCENTSP3> (N016-0050)
60.3

$$$$

  -ISIS-  -- StrEd -- 

 85 91  0  0  0  0  0  0  0  0999 V2000
    1.8584    2.0147    0.0000 C   0  0  0  0  0  0  0  0  0  0  0  0
    1.1064    0.6972    0.0000 C   0  0  1  0  0  0  0  0  0  0  0  0
    1.8584    1.1191    0.0000 C   0  0  2  0  0  0  0  0  0  0  0  0
   -0.4142    0.6972    0.0000 C   0  0  2  0  0  0  0  0  0  0  0  0
   -4.7137   -1.1106    0.0000 C   0  0  0  0  0  0  0  0  0  0  0  0
   -5.2964   -4.7346    0.0000 C   0  0  0  0  0  0  0  0  0  0  0  0
   -3.5142   -2.7075    0.0000 C   0  0  0  0  0  0  0  0  0  0  0  0
    0.3547    1.1191    0.0000 C   0  0  0  0  0  0  0  0  0  0  0  0
   -3.4973   -5.5707    0.0000 C   0  0  0  0  0  0  0  0  0  0  0  0
   -2.8638   -1.9385    0.0000 C   0  0  0  0  0  0  0  0  0  0  0  0
   -4.1223   -4.7346    0.0000 O   0  0  0  0  0  0  0  0  0  0  0  0
   -3.5142   -1.1106    0.0000 O   0  0  0  0  0  0  0  0  0  0  0  0
    1.1064    2.4792    0.0000 C   0  0  0  0  0  0  0  0  0  0  0  0
   -4.1223   -6.3989    0.0000 C   0  0  0  0  0  0  0  0  0  0  0  0
    0.3547    2.0147    0.0000 C   0  0  0  0  0  0  0  0  0  0  0  0
   -4.7137   -0.6036    0.0000 C   0  0  0  0  0  0  0  0  0  0  0  0
   -5.2964   -4.2106    0.0000 C   0  0  0  0  0  0  0  0  0  0  0  0
   -5.3641   -1.9385    0.0000 C   0  0  0  0  0  0  0  0  0  0  0  0
   -5.9891   -5.5707    0.0000 C   0  0  0  0  0  0  0  0  0  0  0  0
   -4.7137   -2.7075    0.0000 C   0  0  0  0  0  0  0  0  0  0  0  0
   -0.4142   -0.2746    0.0000 C   0  0  0  0  0  0  0  0  0  0  0  0
    2.8297    2.6821    0.0000 C   0  0  0  0  0  0  0  0  0  0  0  0
   -5.2964   -6.3989    0.0000 C   0  0  0  0  0  0  0  0  0  0  0  0
   -3.4973   -4.0839    0.0000 O   0  0  0  0  0  0  0  0  0  0  0  0
   -5.2202   -0.3335    0.0000 N   0  0  0  0  0  0  0  0  0  0  0  0
   -6.0312   -3.8223    0.0000 N   0  0  0  0  0  0  0  0  0  0  0  0
   -1.2249   -0.7644    0.0000 C   0  0  2  0  0  0  0  0  0  0  0  0
    6.1579    4.2024    0.0000 N   0  0  0  0  0  0  0  0  0  0  0  0
    4.6968    4.9377    0.0000 C   0  0  0  0  0  0  0  0  0  0  0  0
    3.7842    4.3040    0.0000 C   0  0  2  0  0  0  0  0  0  0  0  0
    2.8297    3.7800    0.0000 C   0  0  0  0  0  0  0  0  0  0  0  0
    3.7842    2.1330    0.0000 C   0  0  1  0  0  0  0  0  0  0  0  0
   -2.8638   -0.7644    0.0000 O   0  0  0  0  0  0  0  0  0  0  0  0
   -1.9933   -0.2746    0.0000 C   0  0  0  0  0  0  0  0  0  0  0  0
   -5.2202    0.6377    0.0000 C   0  0  0  0  0  0  0  0  0  0  0  0
   -7.0199   -3.8223    0.0000 C   0  0  0  0  0  0  0  0  0  0  0  0
    6.9858    4.6925    0.0000 C   0  0  0  0  0  0  0  0  0  0  0  0
    1.1064   -0.2746    0.0000 C   0  0  0  0  0  0  0  0  0  0  0  0
   -1.2249    1.1191    0.0000 C   0  0  0  0  0  0  0  0  0  0  0  0
    2.8297    0.4774    0.0000 C   0  0  0  0  0  0  0  0  0  0  0  0
    6.4790    5.5458    0.0000 C   0  0  0  0  0  0  0  0  0  0  0  0
   -7.0199   -2.8341    0.0000 C   0  0  0  0  0  0  0  0  0  0  0  0
   -6.1920    0.6377    0.0000 C   0  0  0  0  0  0  0  0  0  0  0  0
    0.3547   -0.7644    0.0000 C   0  0  0  0  0  0  0  0  0  0  0  0
   -0.5996    2.5638    0.0000 O   0  0  0  0  0  0  0  0  0  0  0  0
   -4.6714   -3.6195    0.0000 O   0  0  0  0  0  0  0  0  0  0  0  0
   -4.1056   -0.2322    0.0000 O   0  0  0  0  0  0  0  0  0  0  0  0
    3.7842    1.0181    0.0000 C   0  0  0  0  0  0  0  0  0  0  0  0
   -1.9933    0.6972    0.0000 C   0  0  0  0  0  0  0  0  0  0  0  0
    4.6968    6.1119    0.0000 O   0  0  0  0  0  0  0  0  0  0  0  0
    4.7388    3.7800    0.0000 C   0  0  0  0  0  0  0  0  0  0  0  0
    4.7388    2.6821    0.0000 C   0  0  0  0  0  0  0  0  0  0  0  0
    5.6090    5.5458    0.0000 O   0  0  0  0  0  0  0  0  0  0  0  0
   -6.1751   -2.3271    0.0000 O   0  0  0  0  0  0  0  0  0  0  0  0
   -6.6819   -0.2153    0.0000 O   0  0  0  0  0  0  0  0  0  0  0  0
   -4.1223   -7.2268    0.0000 O   0  0  0  0  0  0  0  0  0  0  0  0
   -5.9891   -6.6184    0.0000 O   0  0  0  0  0  0  0  0  0  0  0  0
   -5.3385   -2.8677    0.0000 O   0  0  0  0  0  0  0  0  0  0  0  0
   -4.7137   -1.8793    0.0000 O   0  0  0  0  0  0  0  0  0  0  0  0
   -5.2964   -5.5707    0.0000 O   0  0  0  0  0  0  0  0  0  0  0  0
    1.1064    1.5500    0.0000 C   0  0  0  0  0  0  0  0  0  0  0  0
   -0.4142    1.6095    0.0000 C   0  0  0  0  0  0  0  0  0  0  0  0
    7.4926    3.8395    0.0000 C   0  0  0  0  0  0  0  0  0  0  0  0
   -7.9742   -3.8223    0.0000 C   0  0  0  0  0  0  0  0  0  0  0  0
   -5.2202    1.6095    0.0000 C   0  0  0  0  0  0  0  0  0  0  0  0
    1.8753    0.0889    0.0000 C   0  0  0  0  0  0  0  0  0  0  0  0
    6.9689    6.3737    0.0000 O   0  0  0  0  0  0  0  0  0  0  0  0
   -7.8306   -2.3271    0.0000 O   0  0  0  0  0  0  0  0  0  0  0  0
   -6.6988    1.4659    0.0000 O   0  0  0  0  0  0  0  0  0  0  0  0
   -1.7738   -1.8542    0.0000 C   0  0  0  0  0  0  0  0  0  0  0  0
   -0.5576   -1.6769    0.0000 C   0  0  0  0  0  0  0  0  0  0  0  0
    2.8297    4.9121    0.0000 C   0  0  0  0  0  0  0  0  0  0  0  0
    4.8571    1.4910    0.0000 C   0  0  0  0  0  0  0  0  0  0  0  0
   -4.3841    2.0991    0.0000 C   0  0  0  0  0  0  0  0  0  0  0  0
   -8.4641   -4.6584    0.0000 C   0  0  0  0  0  0  0  0  0  0  0  0
    8.4641    3.8395    0.0000 C   0  0  0  0  0  0  0  0  0  0  0  0
   -8.4387   -2.9944    0.0000 C   0  0  0  0  0  0  0  0  0  0  0  0
   -6.0484    2.0991    0.0000 C   0  0  0  0  0  0  0  0  0  0  0  0
    7.0284    2.9862    0.0000 C   0  0  0  0  0  0  0  0  0  0  0  0
   -7.8306   -1.3474    0.0000 C   0  0  0  0  0  0  0  0  0  0  0  0
   -7.6531    1.4659    0.0000 C   0  0  0  0  0  0  0  0  0  0  0  0
    6.4621    7.2268    0.0000 C   0  0  0  0  0  0  0  0  0  0  0  0
    7.8137    5.1742    0.0000 H   0  0  0  0  0  0  0  0  0  0  0  0
   -7.0199   -4.8192    0.0000 H   0  0  0  0  0  0  0  0  0  0  0  0
   -4.2490    0.6377    0.0000 H   0  0  0  0  0  0  0  0  0  0  0  0
  2  3  1  0  0  0  0
  3  1  1  0  0  0  0
  8  4  1  0  0  0  0
  5 12  1  0  0  0  0
  6 11  1  0  0  0  0
  7 10  1  0  0  0  0
  8 15  1  0  0  0  0
  9 24  1  0  0  0  0
 10 33  1  0  0  0  0
 11  9  1  0  0  0  0
 12 10  1  0  0  0  0
 13  1  2  0  0  0  0
 14  9  1  0  0  0  0
 15 13  1  0  0  0  0
  5 16  1  0  0  0  0
  6 17  1  0  0  0  0
 18  5  1  0  0  0  0
 19 23  1  0  0  0  0
 20  7  1  0  0  0  0
 21  4  1  0  0  0  0
 22  1  1  0  0  0  0
 23 14  1  0  0  0  0
  7 24  1  0  0  0  0
 25 16  1  0  0  0  0
 26 17  1  0  0  0  0
 27 21  1  0  0  0  0
 28 29  1  0  0  0  0
 29 30  1  0  0  0  0
 30 31  1  0  0  0  0
 31 22  1  0  0  0  0
 32 22  1  0  0  0  0
 34 33  1  0  0  0  0
 34 49  1  0  0  0  0
 35 25  1  0  0  0  0
 36 26  1  0  0  0  0
 37 28  1  0  0  0  0
 38  2  1  0  0  0  0
 39  4  1  0  0  0  0
 40  3  1  0  0  0  0
 41 37  1  0  0  0  0
 42 36  1  0  0  0  0
 43 35  1  0  0  0  0
 44 38  1  0  0  0  0
 45 15  2  0  0  0  0
 46 17  2  0  0  0  0
 47 16  2  0  0  0  0
 48 32  1  0  0  0  0
 49 39  1  0  0  0  0
 50 29  2  0  0  0  0
 51 52  1  0  0  0  0
 52 32  1  0  0  0  0
 53 41  2  0  0  0  0
 54 42  2  0  0  0  0
 55 43  2  0  0  0  0
 14 56  1  0  0  0  0
 19 57  1  0  0  0  0
 18 58  1  0  0  0  0
 20 59  1  0  0  0  0
 23 60  1  0  0  0  0
  2 61  1  1  0  0  0
  4 62  1  1  0  0  0
 63 37  1  0  0  0  0
 64 36  1  0  0  0  0
 65 35  1  0  0  0  0
  3 66  1  6  0  0  0
 67 41  1  0  0  0  0
 68 42  1  0  0  0  0
 69 43  1  0  0  0  0
 27 70  1  1  0  0  0
 27 71  1  6  0  0  0
 30 72  1  6  0  0  0
 32 73  1  1  0  0  0
 74 65  1  0  0  0  0
 75 64  1  0  0  0  0
 76 63  1  0  0  0  0
 77 64  1  0  0  0  0
 78 65  1  0  0  0  0
 79 63  1  0  0  0  0
 80 68  1  0  0  0  0
 81 69  1  0  0  0  0
 82 67  1  0  0  0  0
 83 37  1  0  0  0  0
 84 36  1  0  0  0  0
 85 35  1  0  0  0  0
 40 48  1  0  0  0  0
  2  8  1  0  0  0  0
 30 51  1  0  0  0  0
 44 21  1  0  0  0  0
 27 34  1  0  0  0  0
 18 20  1  0  0  0  0
  6 19  1  0  0  0  0
M  END
>  <IDNUMBER> (N016-0062)
N016-0062

>  <available> (N016-0062)
371

>  <H_acceptor> (N016-0062)
19

>  <H_donor> (N016-0062)
8

>  <B_rotN> (N016-0062)
27

>  <N_O> (N016-0062)
22

>  <logP> (N016-0062)
4.01

>  <logD> (N016-0062)
5.08

>  <logSw> (N016-0062)
-8.47

>  <PSA> (N016-0062)
321.34

>  <Chiral_centers> (N016-0062)
22

>  <Name> (N016-0062)
methyl 2-{[10-({4,5-dihydroxy-6-[(1-methoxy-3-methyl-1-oxobutan-2-yl)carbamoyl]-3-({3,4,5-trihydroxy-6-[(1-methoxy-3-methyl-1-oxobutan-2-yl)carbamoyl]oxan-2-yl}oxy)oxan-2-yl}oxy)-2,4a,6a,6b,9,9,12a-he
ptamethyl-13-oxo-1,2,3,4,4a,5,6,6a,6b,7,8,8a,9,10,11,12,12a,12b,13,14b-icosahydropicen-2-yl]formamido}-3-methylbutanoate

>  <Smile> (N016-0062)
COC(C(NC(C1(CC2C3=CC(C4C(C)(CCC5C4(C)CCC(C5(C)C)OC4C(OC5OC(C(C(C5O)O)O)C(NC(C(C)C)C(=O)OC)=O)C(C(C(O4)C(NC(C(C)C)C(=O)OC)=O)O)O)C3(C)CCC2(C)CC1)=O)C)=O)C(C)C)=O

>  <Collection> (N016-0062)
DC

>  <InChI Key> (N016-0062)
QQANTDQGINANND-PIJGRRFWSA-N

>  <PERCENTSP3> (N016-0062)
85

$$$$

  -ISIS-  -- StrEd -- 

 40 44  0  0  0  0  0  0  0  0999 V2000
    3.1829    2.4070    0.0000 C   0  0  0  0  0  0  0  0  0  0  0  0
    4.1864    2.4308    0.0000 N   0  3  0  0  0  0  0  0  0  0  0  0
   -1.3894   -2.0121    0.0000 C   0  0  2  0  0  0  0  0  0  0  0  0
   -3.0158   -2.0121    0.0000 C   0  0  2  0  0  0  0  0  0  0  0  0
    1.1659    4.1541    0.0000 N   0  3  0  0  0  0  0  0  0  0  0  0
   -3.0158   -2.9269    0.0000 C   0  0  1  0  0  0  0  0  0  0  0  0
   -2.2025   -1.5331    0.0000 C   0  0  0  0  0  0  0  0  0  0  0  0
   -3.8196   -3.4294    0.0000 C   0  0  2  0  0  0  0  0  0  0  0  0
    2.6950    3.2991    0.0000 C   0  0  0  0  0  0  0  0  0  0  0  0
   -0.5857   -0.5622    0.0000 C   0  0  2  0  0  0  0  0  0  0  0  0
    0.5625   -1.2729    0.0000 C   0  0  0  0  0  0  0  0  0  0  0  0
    2.6950    1.5335    0.0000 C   0  0  0  0  0  0  0  0  0  0  0  0
    1.6677    3.2756    0.0000 C   0  0  0  0  0  0  0  0  0  0  0  0
    2.7368   -0.1721    0.0000 C   0  0  0  0  0  0  0  0  0  0  0  0
    1.3985   -1.1198    0.0000 N   0  0  0  0  0  0  0  0  0  0  0  0
   -0.5857   -1.5331    0.0000 C   0  0  0  0  0  0  0  0  0  0  0  0
   -3.3410   -4.2283    0.0000 C   0  0  0  0  0  0  0  0  0  0  0  0
    3.1642    0.6642    0.0000 N   0  0  0  0  0  0  0  0  0  0  0  0
   -0.4412   -2.6116    0.0000 C   0  0  0  0  0  0  0  0  0  0  0  0
   -2.2025   -3.4150    0.0000 C   0  0  0  0  0  0  0  0  0  0  0  0
    1.7240   -0.1814    0.0000 N   0  0  0  0  0  0  0  0  0  0  0  0
   -2.2025   -0.5857    0.0000 C   0  0  0  0  0  0  0  0  0  0  0  0
    4.7351    1.5797    0.0000 O   0  5  0  0  0  0  0  0  0  0  0  0
    1.5800    5.0790    0.0000 O   0  5  0  0  0  0  0  0  0  0  0  0
   -1.3894   -2.9269    0.0000 C   0  0  0  0  0  0  0  0  0  0  0  0
    4.7351    3.2294    0.0000 O   0  0  0  0  0  0  0  0  0  0  0  0
    0.1395    4.1960    0.0000 O   0  0  0  0  0  0  0  0  0  0  0  0
   -1.4220   -0.1254    0.0000 C   0  0  0  0  0  0  0  0  0  0  0  0
    3.2617   -1.0639    0.0000 O   0  0  0  0  0  0  0  0  0  0  0  0
    1.6677    1.5335    0.0000 C   0  0  0  0  0  0  0  0  0  0  0  0
   -3.8427   -5.0790    0.0000 O   0  0  0  0  0  0  0  0  0  0  0  0
    1.1433    2.4308    0.0000 C   0  0  0  0  0  0  0  0  0  0  0  0
   -3.8196   -1.5331    0.0000 C   0  0  0  0  0  0  0  0  0  0  0  0
   -2.3376   -4.2283    0.0000 O   0  0  0  0  0  0  0  0  0  0  0  0
   -3.0158   -1.0639    0.0000 C   0  0  0  0  0  0  0  0  0  0  0  0
   -4.6466   -2.9269    0.0000 C   0  0  0  0  0  0  0  0  0  0  0  0
   -4.7351   -4.0192    0.0000 C   0  0  0  0  0  0  0  0  0  0  0  0
    0.4503    0.0744    0.0000 C   0  0  0  0  0  0  0  0  0  0  0  0
   -4.6466   -2.0121    0.0000 C   0  0  0  0  0  0  0  0  0  0  0  0
   -3.0068   -3.6051    0.0000 H   0  0  0  0  0  0  0  0  0  0  0  0
  2  1  1  0  0  0  0
  3 19  1  6  0  0  0
  7  4  1  0  0  0  0
  5 13  1  0  0  0  0
  6 20  1  0  0  0  0
  7  3  1  0  0  0  0
  8  6  1  0  0  0  0
  9  1  1  0  0  0  0
 10 11  1  6  0  0  0
 11 15  2  0  0  0  0
 12  1  2  0  0  0  0
 13  9  2  0  0  0  0
 14 18  1  0  0  0  0
 15 21  1  0  0  0  0
 16 10  1  0  0  0  0
  8 17  1  6  0  0  0
 18 12  1  0  0  0  0
 11 19  1  0  0  0  0
 20 25  1  0  0  0  0
 21 14  1  0  0  0  0
 22 28  1  0  0  0  0
 23  2  1  0  0  0  0
 24  5  1  0  0  0  0
 25  3  1  0  0  0  0
 26  2  2  0  0  0  0
 27  5  2  0  0  0  0
 28 10  1  0  0  0  0
 29 14  2  0  0  0  0
 30 12  1  0  0  0  0
 31 17  2  0  0  0  0
 32 30  2  0  0  0  0
 33  4  1  0  0  0  0
 34 17  1  0  0  0  0
  4 35  1  6  0  0  0
 36  8  1  0  0  0  0
  8 37  1  1  0  0  0
 10 38  1  1  0  0  0
 39 33  1  0  0  0  0
  6 40  1  1  0  0  0
 13 32  1  0  0  0  0
 16  3  1  0  0  0  0
 22  7  1  0  0  0  0
  4  6  1  0  0  0  0
 39 36  1  0  0  0  0
M  CHG  4   2   1   5   1  23  -1  24  -1
M  END
>  <IDNUMBER> (N062-0010)
N062-0010

>  <available> (N062-0010)
752

>  <H_acceptor> (N062-0010)
8

>  <H_donor> (N062-0010)
3

>  <B_rotN> (N062-0010)
6

>  <N_O> (N062-0010)
12

>  <logP> (N062-0010)
4.55

>  <logD> (N062-0010)
-1.02

>  <logSw> (N062-0010)
-4.02

>  <PSA> (N062-0010)
182.43

>  <Chiral_centers> (N062-0010)
6

>  <Name> (N062-0010)
(14Z)-14-({[(2,4-DINITROPHENYL)CARBAMOYL]AMINO}IMINO)-5,9,13-TRIMETHYLTETRACYCLO[11.2.1.0^(1,10).0^(4,9)]HEXADECANE-5-CARBOXYLIC ACID

>  <Smile> (N062-0010)
C1CC2(C(CCC34CC(C(C)(C3)CCC24)=NNC(Nc2c(cc([N+]([O-])=O)cc2)[N+]([O-])=O)=O)C(C)(C(=O)O)C1)C

>  <Collection> (N062-0010)
DC

>  <InChI Key> (N062-0010)
VXLVRWWWBQOCCJ-MTFUQBNOSA-N

>  <PERCENTSP3> (N062-0010)
66.7

$$$$

  -ISIS-  -- StrEd -- 

 46 50  0  0  0  0  0  0  0  0999 V2000
    0.5506    0.9531    0.0000 C   0  0  1  0  0  0  0  0  0  0  0  0
   -0.2361    0.5129    0.0000 C   0  0  1  0  0  0  0  0  0  0  0  0
   -1.7584    0.5129    0.0000 C   0  0  2  0  0  0  0  0  0  0  0  0
    0.5506    1.8089    0.0000 C   0  0  0  0  0  0  0  0  0  0  0  0
   -1.0036    0.9531    0.0000 C   0  0  0  0  0  0  0  0  0  0  0  0
   -1.7584   -0.4686    0.0000 C   0  0  0  0  0  0  0  0  0  0  0  0
    1.5004    2.5070    0.0000 C   0  0  0  0  0  0  0  0  0  0  0  0
   -2.5890   -0.9531    0.0000 C   0  0  1  0  0  0  0  0  0  0  0  0
    2.4505    1.9474    0.0000 C   0  0  0  0  0  0  0  0  0  0  0  0
    1.7584    3.4697    0.0000 C   0  0  0  0  0  0  0  0  0  0  0  0
   -3.3626   -0.4686    0.0000 C   0  0  0  0  0  0  0  0  0  0  0  0
   -0.2361   -0.4686    0.0000 C   0  0  0  0  0  0  0  0  0  0  0  0
    1.5004    0.2987    0.0000 C   0  0  0  0  0  0  0  0  0  0  0  0
   -0.2361    2.2931    0.0000 C   0  0  0  0  0  0  0  0  0  0  0  0
   -2.5890    0.9531    0.0000 C   0  0  0  0  0  0  0  0  0  0  0  0
   -1.0036    1.8089    0.0000 C   0  0  0  0  0  0  0  0  0  0  0  0
   -1.0036   -0.9531    0.0000 C   0  0  0  0  0  0  0  0  0  0  0  0
    1.1421    4.2435    0.0000 C   0  0  0  0  0  0  0  0  0  0  0  0
   -4.5203   -1.1796    0.0000 O   0  0  0  0  0  0  0  0  0  0  0  0
    2.7398    3.5642    0.0000 C   0  0  0  0  0  0  0  0  0  0  0  0
   -4.4952   -2.1925    0.0000 C   0  0  0  0  0  0  0  0  0  0  0  0
    5.2755    1.2804    0.0000 C   0  0  0  0  0  0  0  0  0  0  0  0
    6.1059   -1.2110    0.0000 C   0  0  0  0  0  0  0  0  0  0  0  0
   -6.1562   -4.1366    0.0000 C   0  0  0  0  0  0  0  0  0  0  0  0
    2.4505    0.8588    0.0000 C   0  0  0  0  0  0  0  0  0  0  0  0
    3.1614    2.6707    0.0000 C   0  0  0  0  0  0  0  0  0  0  0  0
   -3.3626    0.5129    0.0000 C   0  0  0  0  0  0  0  0  0  0  0  0
    3.5262    1.3118    0.0000 C   0  0  0  0  0  0  0  0  0  0  0  0
    4.4134    1.7963    0.0000 O   0  0  0  0  0  0  0  0  0  0  0  0
   -3.6459   -2.7650    0.0000 O   0  0  0  0  0  0  0  0  0  0  0  0
    6.2882    1.6769    0.0000 O   0  0  0  0  0  0  0  0  0  0  0  0
    6.9363   -1.7395    0.0000 O   0  0  0  0  0  0  0  0  0  0  0  0
   -6.1688   -5.1621    0.0000 O   0  0  0  0  0  0  0  0  0  0  0  0
    1.5004    5.1621    0.0000 C   0  0  0  0  0  0  0  0  0  0  0  0
    0.5506   -0.0910    0.0000 C   0  0  0  0  0  0  0  0  0  0  0  0
   -0.2361    1.3873    0.0000 C   0  0  0  0  0  0  0  0  0  0  0  0
   -5.3067   -2.6579    0.0000 C   0  0  0  0  0  0  0  0  0  0  0  0
    5.2627    0.2863    0.0000 C   0  0  0  0  0  0  0  0  0  0  0  0
   -1.7584    1.4189    0.0000 C   0  0  0  0  0  0  0  0  0  0  0  0
   -5.3067   -3.6522    0.0000 C   0  0  0  0  0  0  0  0  0  0  0  0
    6.1248   -0.2295    0.0000 C   0  0  0  0  0  0  0  0  0  0  0  0
    5.2441   -1.7395    0.0000 O   0  0  0  0  0  0  0  0  0  0  0  0
   -6.9363   -3.6082    0.0000 O   0  0  0  0  0  0  0  0  0  0  0  0
   -1.8969   -1.8904    0.0000 C   0  0  0  0  0  0  0  0  0  0  0  0
   -3.1363   -2.0414    0.0000 C   0  0  0  0  0  0  0  0  0  0  0  0
    0.2046    4.0924    0.0000 C   0  0  0  0  0  0  0  0  0  0  0  0
  2  1  1  0  0  0  0
  5  3  1  0  0  0  0
  4  1  1  0  0  0  0
  5  2  1  0  0  0  0
  6 17  1  0  0  0  0
  7  4  1  0  0  0  0
  8  6  1  0  0  0  0
  9 25  1  0  0  0  0
 10  7  1  0  0  0  0
 11  8  1  0  0  0  0
 12  2  1  0  0  0  0
 13  1  1  0  0  0  0
 14  4  1  0  0  0  0
 15  3  1  0  0  0  0
 16 14  1  0  0  0  0
 17 12  1  0  0  0  0
 10 18  1  0  0  0  0
 11 19  1  0  0  0  0
 20 10  1  0  0  0  0
 21 19  1  0  0  0  0
 22 29  1  0  0  0  0
 23 41  1  0  0  0  0
 24 40  1  0  0  0  0
 25 13  1  0  0  0  0
 26  9  1  0  0  0  0
 27 15  1  0  0  0  0
  9 28  1  0  0  0  0
 29 28  1  0  0  0  0
 30 21  2  0  0  0  0
 31 22  2  0  0  0  0
 32 23  2  0  0  0  0
 33 24  2  0  0  0  0
 34 18  2  0  0  0  0
  1 35  1  6  0  0  0
  2 36  1  1  0  0  0
 37 21  1  0  0  0  0
 38 22  1  0  0  0  0
  3 39  1  1  0  0  0
 40 37  1  0  0  0  0
 41 38  1  0  0  0  0
 42 23  1  0  0  0  0
 43 24  1  0  0  0  0
  8 44  1  6  0  0  0
  8 45  1  1  0  0  0
 46 18  1  0  0  0  0
  7  9  1  0  0  0  0
 16  5  1  0  0  0  0
 26 20  1  0  0  0  0
  6  3  1  0  0  0  0
 11 27  1  0  0  0  0
M  END
>  <IDNUMBER> (N032-0004)
N032-0004

>  <available> (N032-0004)
160

>  <H_acceptor> (N032-0004)
8

>  <H_donor> (N032-0004)
2

>  <B_rotN> (N032-0004)
14

>  <N_O> (N032-0004)
8

>  <logP> (N032-0004)
6.71

>  <logD> (N032-0004)
6.8

>  <logSw> (N032-0004)
-5.94

>  <PSA> (N032-0004)
127.2

>  <Chiral_centers> (N032-0004)
10

>  <Name> (N032-0004)
4-[(3a-{[(3-carboxypropanoyl)oxy]methyl}-5a,5b,8,8,11a-pentamethyl-1-(prop-1-en-2-yl)-icosahydro-1H-cyclopenta[a]chrysen-9-yl)oxy]-4-oxobutanoic acid

>  <Smile> (N032-0004)
CC(C1C2C3C(CCC2(CC1)COC(=O)CCC(=O)O)(C1(C)C(C2(CCC(C(C2CC1)(C)C)OC(=O)CCC(=O)O)C)CC3)C)=C

>  <Collection> (N032-0004)
DC

>  <InChI Key> (N032-0004)
KVBSNHACBJJCBD-UKUDPQCESA-N

>  <PERCENTSP3> (N032-0004)
84.2

$$$$

  -ISIS-  -- StrEd -- 

 28 31  0  0  0  0  0  0  0  0999 V2000
   -0.1191    0.5566    0.0000 C   0  0  0  0  0  0  0  0  0  0  0  0
   -2.7537   -0.9859    0.0000 C   0  0  0  0  0  0  0  0  0  0  0  0
   -2.7537   -2.0038    0.0000 C   0  0  0  0  0  0  0  0  0  0  0  0
   -0.1191   -0.4878    0.0000 C   0  0  0  0  0  0  0  0  0  0  0  0
   -1.8899   -0.4770    0.0000 C   0  0  0  0  0  0  0  0  0  0  0  0
   -0.9992   -0.9859    0.0000 C   0  0  0  0  0  0  0  0  0  0  0  0
    0.8189    0.8375    0.0000 C   0  0  0  0  0  0  0  0  0  0  0  0
   -1.8899   -2.5127    0.0000 C   0  0  0  0  0  0  0  0  0  0  0  0
   -0.9992    1.0390    0.0000 C   0  0  0  0  0  0  0  0  0  0  0  0
   -0.9992   -2.0038    0.0000 C   0  0  0  0  0  0  0  0  0  0  0  0
   -1.8899    0.5566    0.0000 C   0  0  0  0  0  0  0  0  0  0  0  0
    0.8455   -0.7793    0.0000 C   0  0  0  0  0  0  0  0  0  0  0  0
   -3.6338   -0.4770    0.0000 C   0  0  0  0  0  0  0  0  0  0  0  0
    1.4180    0.0583    0.0000 C   0  0  0  0  0  0  0  0  0  0  0  0
   -3.6338   -2.5127    0.0000 C   0  0  0  0  0  0  0  0  0  0  0  0
    1.1104    1.7915    0.0000 C   0  0  0  0  0  0  0  0  0  0  0  0
   -0.1191    1.5109    0.0000 C   0  0  0  0  0  0  0  0  0  0  0  0
   -4.4979   -0.9859    0.0000 C   0  0  0  0  0  0  0  0  0  0  0  0
   -4.4979   -2.0038    0.0000 C   0  0  0  0  0  0  0  0  0  0  0  0
   -2.7537   -0.1059    0.0000 C   0  0  0  0  0  0  0  0  0  0  0  0
   -5.3619   -2.5127    0.0000 O   0  0  0  0  0  0  0  0  0  0  0  0
    2.7537    1.2934    0.0000 C   0  0  0  0  0  0  0  0  0  0  0  0
    2.0807    2.0196    0.0000 C   0  0  0  0  0  0  0  0  0  0  0  0
    0.4373    2.5127    0.0000 C   0  0  0  0  0  0  0  0  0  0  0  0
    3.7186    1.5213    0.0000 C   0  0  0  0  0  0  0  0  0  0  0  0
    4.4076    0.8112    0.0000 C   0  0  0  0  0  0  0  0  0  0  0  0
    4.1426   -0.1431    0.0000 C   0  0  0  0  0  0  0  0  0  0  0  0
    5.3619    1.0390    0.0000 C   0  0  0  0  0  0  0  0  0  0  0  0
  5  2  1  0  0  0  0
  3  2  1  0  0  0  0
  4  1  1  0  0  0  0
  5 11  1  0  0  0  0
  6  4  1  0  0  0  0
  7  1  1  0  0  0  0
  8 10  1  0  0  0  0
  9  1  1  0  0  0  0
 10  6  1  0  0  0  0
 11  9  1  0  0  0  0
 12  4  1  0  0  0  0
 13  2  1  0  0  0  0
 14  7  1  0  0  0  0
 15  3  1  0  0  0  0
 16  7  1  0  0  0  0
  1 17  1  0  0  0  0
 18 13  1  0  0  0  0
 19 18  1  0  0  0  0
  2 20  1  0  0  0  0
 19 21  1  0  0  0  0
 22 23  1  0  0  0  0
 23 16  1  0  0  0  0
 24 16  1  0  0  0  0
 25 22  1  0  0  0  0
 26 25  1  0  0  0  0
 27 26  1  0  0  0  0
 28 26  1  0  0  0  0
 14 12  1  0  0  0  0
  6  5  1  0  0  0  0
  8  3  2  0  0  0  0
 19 15  1  0  0  0  0
M  END
>  <IDNUMBER> (N050-0022)
N050-0022

>  <available> (N050-0022)
150

>  <H_acceptor> (N050-0022)
1

>  <H_donor> (N050-0022)
1

>  <B_rotN> (N050-0022)
6

>  <N_O> (N050-0022)
1

>  <logP> (N050-0022)
7.38

>  <logD> (N050-0022)
9

>  <logSw> (N050-0022)
-6

>  <PSA> (N050-0022)
20.23

>  <Chiral_centers> (N050-0022)
8

>  <Name> (N050-0022)
9a,11a-dimethyl-1-(6-methylheptan-2-yl)-1H,2H,3H,3aH,3bH,4H,6H,7H,8H,9H,9aH,9bH,10H,11H,11aH-cyclopenta[a]phenanthren-7-ol

>  <Smile> (N050-0022)
CC(CCCC(C1C2(C)CCC3C4(C)C(=CCC3C2CC1)CC(CC4)O)C)C

>  <Collection> (N050-0022)
DC

>  <InChI Key> (N050-0022)
HVYWMOMLDIMFJA-UHFFFAOYSA-N

>  <PERCENTSP3> (N050-0022)
92.6

$$$$

  -ISIS-  -- StrEd -- 

 16 18  0  0  0  0  0  0  0  0999 V2000
    0.3320   -0.8856    0.0000 C   0  0  0  0  0  0  0  0  0  0  0  0
    0.9921   -1.6041    0.0000 C   0  0  0  0  0  0  0  0  0  0  0  0
    1.2928   -0.6643    0.0000 C   0  0  0  0  0  0  0  0  0  0  0  0
   -0.4532   -0.2632    0.0000 C   0  0  0  0  0  0  0  0  0  0  0  0
   -0.4532    0.7603    0.0000 C   0  0  0  0  0  0  0  0  0  0  0  0
    1.7357    0.2800    0.0000 C   0  0  0  0  0  0  0  0  0  0  0  0
    0.3320    1.3828    0.0000 C   0  0  0  0  0  0  0  0  0  0  0  0
   -1.4141    1.0611    0.0000 C   0  0  0  0  0  0  0  0  0  0  0  0
   -1.4141   -0.5639    0.0000 C   0  0  0  0  0  0  0  0  0  0  0  0
    1.2928    1.1613    0.0000 C   0  0  0  0  0  0  0  0  0  0  0  0
   -1.9738    0.2380    0.0000 C   0  0  0  0  0  0  0  0  0  0  0  0
    0.2694   -2.3059    0.0000 C   0  0  0  0  0  0  0  0  0  0  0  0
    1.9738   -1.9049    0.0000 C   0  0  0  0  0  0  0  0  0  0  0  0
    1.0923    2.0051    0.0000 O   0  0  0  0  0  0  0  0  0  0  0  0
   -0.0313    2.3059    0.0000 C   0  0  0  0  0  0  0  0  0  0  0  0
   -1.7357   -1.5247    0.0000 C   0  0  0  0  0  0  0  0  0  0  0  0
  2  1  1  0  0  0  0
  3  1  1  0  0  0  0
  4  1  1  0  0  0  0
  5  4  1  0  0  0  0
  6  3  1  0  0  0  0
  7  5  1  0  0  0  0
  8  5  1  0  0  0  0
  9  4  1  0  0  0  0
 10  6  1  0  0  0  0
 11  9  1  0  0  0  0
 12  2  1  0  0  0  0
 13  2  1  0  0  0  0
  7 14  1  0  0  0  0
 15  7  1  0  0  0  0
  9 16  1  0  0  0  0
  2  3  1  0  0  0  0
  8 11  1  0  0  0  0
  7 10  1  0  0  0  0
M  END
>  <IDNUMBER> (N002-0035)
N002-0035

>  <available> (N002-0035)
216

>  <H_acceptor> (N002-0035)
1

>  <H_donor> (N002-0035)
1

>  <B_rotN> (N002-0035)
1

>  <N_O> (N002-0035)
1

>  <logP> (N002-0035)
3.2

>  <logD> (N002-0035)
3.94

>  <logSw> (N002-0035)
-5.3

>  <PSA> (N002-0035)
20.23

>  <Chiral_centers> (N002-0035)
6

>  <Name> (N002-0035)
1,1,4,7-tetramethyl-decahydro-1H-cyclopropa[e]azulen-4-ol

>  <Smile> (N002-0035)
CC1C2C3C(C3(C)C)CCC(C2CC1)(O)C

>  <Collection> (N002-0035)
DC

>  <InChI Key> (N002-0035)
AYXPYQRXGNDJFU-UHFFFAOYSA-N

>  <PERCENTSP3> (N002-0035)
100

$$$$

  -ISIS-  -- StrEd -- 

 58 64  0  0  0  0  0  0  0  0999 V2000
    2.3530    2.8992    0.0000 C   0  0  0  0  0  0  0  0  0  0  0  0
    1.6764    1.7373    0.0000 C   0  0  1  0  0  0  0  0  0  0  0  0
    2.3530    2.1051    0.0000 C   0  0  2  0  0  0  0  0  0  0  0  0
    0.3174    1.7373    0.0000 C   0  0  2  0  0  0  0  0  0  0  0  0
   -2.6460   -1.9614    0.0000 C   0  0  0  0  0  0  0  0  0  0  0  0
   -4.1329    0.0106    0.0000 C   0  0  0  0  0  0  0  0  0  0  0  0
   -4.9007   -3.5603    0.0000 C   0  0  0  0  0  0  0  0  0  0  0  0
    0.9993    2.1051    0.0000 C   0  0  0  0  0  0  0  0  0  0  0  0
   -2.6460   -4.6048    0.0000 C   0  0  0  0  0  0  0  0  0  0  0  0
   -1.8413   -1.0126    0.0000 C   0  0  0  0  0  0  0  0  0  0  0  0
   -3.3921   -3.5603    0.0000 O   0  0  0  0  0  0  0  0  0  0  0  0
   -2.6460    0.0106    0.0000 O   0  0  0  0  0  0  0  0  0  0  0  0
    1.6764    3.3096    0.0000 C   0  0  0  0  0  0  0  0  0  0  0  0
   -3.3921   -5.6070    0.0000 C   0  0  0  0  0  0  0  0  0  0  0  0
    0.9993    2.8992    0.0000 C   0  0  0  0  0  0  0  0  0  0  0  0
   -4.1329   -1.9614    0.0000 C   0  0  0  0  0  0  0  0  0  0  0  0
   -4.9271   -1.0126    0.0000 C   0  0  0  0  0  0  0  0  0  0  0  0
   -5.7053   -4.6048    0.0000 C   0  0  0  0  0  0  0  0  0  0  0  0
    0.3174    0.8794    0.0000 C   0  0  0  0  0  0  0  0  0  0  0  0
    3.1951    3.4908    0.0000 C   0  0  0  0  0  0  0  0  0  0  0  0
   -4.9007   -5.6070    0.0000 C   0  0  0  0  0  0  0  0  0  0  0  0
   -2.6460   -3.1391    0.0000 O   0  0  0  0  0  0  0  0  0  0  0  0
   -0.3971    0.4424    0.0000 C   0  0  1  0  0  0  0  0  0  0  0  0
    4.0428    4.9459    0.0000 C   0  0  1  0  0  0  0  0  0  0  0  0
    3.1951    4.4611    0.0000 C   0  0  0  0  0  0  0  0  0  0  0  0
    4.0428    3.0006    0.0000 C   0  0  1  0  0  0  0  0  0  0  0  0
   -4.1329    0.6396    0.0000 C   0  0  0  0  0  0  0  0  0  0  0  0
   -4.9007   -2.8835    0.0000 C   0  0  0  0  0  0  0  0  0  0  0  0
   -1.8413    0.4424    0.0000 O   0  0  0  0  0  0  0  0  0  0  0  0
   -1.0898    0.8794    0.0000 C   0  0  0  0  0  0  0  0  0  0  0  0
    1.6764    0.8794    0.0000 C   0  0  0  0  0  0  0  0  0  0  0  0
    4.8580    5.5001    0.0000 C   0  0  0  0  0  0  0  0  0  0  0  0
   -0.3971    2.1051    0.0000 C   0  0  0  0  0  0  0  0  0  0  0  0
    3.1951    1.5296    0.0000 C   0  0  0  0  0  0  0  0  0  0  0  0
    0.9993    0.4424    0.0000 C   0  0  0  0  0  0  0  0  0  0  0  0
    0.1518    3.3738    0.0000 O   0  0  0  0  0  0  0  0  0  0  0  0
    4.0428    2.0199    0.0000 C   0  0  0  0  0  0  0  0  0  0  0  0
   -1.0898    1.7373    0.0000 C   0  0  0  0  0  0  0  0  0  0  0  0
    4.8846    4.4611    0.0000 C   0  0  0  0  0  0  0  0  0  0  0  0
    4.8846    3.4908    0.0000 C   0  0  0  0  0  0  0  0  0  0  0  0
   -4.3250   -2.4997    0.0000 O   0  0  0  0  0  0  0  0  0  0  0  0
   -3.3658    1.0819    0.0000 O   0  0  0  0  0  0  0  0  0  0  0  0
    4.8472    6.5395    0.0000 O   0  0  0  0  0  0  0  0  0  0  0  0
   -3.3921   -6.5395    0.0000 O   0  0  0  0  0  0  0  0  0  0  0  0
   -5.7053   -5.7719    0.0000 O   0  0  0  0  0  0  0  0  0  0  0  0
   -4.9271   -1.8975    0.0000 O   0  0  0  0  0  0  0  0  0  0  0  0
   -4.1329   -1.0285    0.0000 O   0  0  0  0  0  0  0  0  0  0  0  0
   -4.9007   -4.6475    0.0000 O   0  0  0  0  0  0  0  0  0  0  0  0
    1.6764    2.4889    0.0000 C   0  0  0  0  0  0  0  0  0  0  0  0
    0.3331    2.5424    0.0000 C   0  0  0  0  0  0  0  0  0  0  0  0
    2.3638    1.1994    0.0000 C   0  0  0  0  0  0  0  0  0  0  0  0
   -5.7320   -2.4357    0.0000 O   0  0  0  0  0  0  0  0  0  0  0  0
   -4.7566    0.9539    0.0000 O   0  0  0  0  0  0  0  0  0  0  0  0
    5.7320    5.0098    0.0000 O   0  0  0  0  0  0  0  0  0  0  0  0
    0.1892   -0.3625    0.0000 C   0  0  0  0  0  0  0  0  0  0  0  0
   -0.8980   -0.5274    0.0000 C   0  0  0  0  0  0  0  0  0  0  0  0
    3.1951    5.4735    0.0000 C   0  0  0  0  0  0  0  0  0  0  0  0
    4.9859    2.4251    0.0000 C   0  0  0  0  0  0  0  0  0  0  0  0
  2  3  1  0  0  0  0
  3  1  1  0  0  0  0
  8  4  1  0  0  0  0
  5 10  1  0  0  0  0
  6 12  1  0  0  0  0
  7 11  1  0  0  0  0
  8 15  1  0  0  0  0
  9 22  1  0  0  0  0
 10 29  1  0  0  0  0
 11  9  1  0  0  0  0
 12 10  1  0  0  0  0
 13  1  2  0  0  0  0
 14  9  1  0  0  0  0
 15 13  1  0  0  0  0
 16  5  1  0  0  0  0
 17  6  1  0  0  0  0
 18 21  1  0  0  0  0
 19  4  1  0  0  0  0
 20  1  1  0  0  0  0
 21 14  1  0  0  0  0
  5 22  1  0  0  0  0
 23 19  1  0  0  0  0
 24 25  1  0  0  0  0
 25 20  1  0  0  0  0
 26 20  1  0  0  0  0
  6 27  1  0  0  0  0
  7 28  1  0  0  0  0
 30 29  1  0  0  0  0
 30 38  1  0  0  0  0
 31  2  1  0  0  0  0
 32 24  1  0  0  0  0
 33  4  1  0  0  0  0
 34  3  1  0  0  0  0
 35 31  1  0  0  0  0
 36 15  2  0  0  0  0
 37 26  1  0  0  0  0
 38 33  1  0  0  0  0
 39 40  1  0  0  0  0
 40 26  1  0  0  0  0
 41 28  2  0  0  0  0
 42 27  2  0  0  0  0
 43 32  2  0  0  0  0
 14 44  1  0  0  0  0
 18 45  1  0  0  0  0
 17 46  1  0  0  0  0
 16 47  1  0  0  0  0
 21 48  1  0  0  0  0
  2 49  1  1  0  0  0
  4 50  1  1  0  0  0
  3 51  1  6  0  0  0
 52 28  1  0  0  0  0
 53 27  1  0  0  0  0
 54 32  1  0  0  0  0
 23 55  1  6  0  0  0
 23 56  1  1  0  0  0
 24 57  1  6  0  0  0
 26 58  1  1  0  0  0
 34 37  1  0  0  0  0
  8  2  1  0  0  0  0
 39 24  1  0  0  0  0
 19 35  1  0  0  0  0
 30 23  1  0  0  0  0
 16 17  1  0  0  0  0
 18  7  1  0  0  0  0
M  END
>  <IDNUMBER> (N016-0069)
N016-0069

>  <available> (N016-0069)
24

>  <H_acceptor> (N016-0069)
16

>  <H_donor> (N016-0069)
8

>  <B_rotN> (N016-0069)
15

>  <N_O> (N016-0069)
16

>  <logP> (N016-0069)
2.1

>  <logD> (N016-0069)
-5.7

>  <logSw> (N016-0069)
-0.97

>  <PSA> (N016-0069)
267.04

>  <Chiral_centers> (N016-0069)
19

>  <Name> (N016-0069)
5-[(6-carboxy-3,4,5-trihydroxyoxan-2-yl)oxy]-6-[(11-carboxy-4,4,6a,6b,8a,11,14b-heptamethyl-14-oxo-1,2,3,4,4a,5,6,6a,6b,7,8,8a,9,10,11,12,12a,14,14a,14b-icosahydropicen-3-yl)oxy]-3,4-dihydroxyoxane-2-
carboxylic acid

>  <Smile> (N016-0069)
CC12C(C3=CC(C4C(C)(CCC5C4(C)CCC(C5(C)C)OC4C(OC5OC(C(=O)O)C(C(C5O)O)O)C(C(C(O4)C(=O)O)O)O)C3(C)CC2)=O)CC(C(=O)O)(C)CC1

>  <Collection> (N016-0069)
DC

>  <InChI Key> (N016-0069)
LPLVUJXQOOQHMX-LUMWQMBZSA-N

>  <PERCENTSP3> (N016-0069)
85.7

$$$$

  -ISIS-  -- StrEd -- 

 27 30  0  0  0  0  0  0  0  0999 V2000
   -0.4586    0.4912    0.0000 C   0  0  2  0  0  0  0  0  0  0  0  0
   -2.0913    0.4912    0.0000 C   0  0  2  0  0  0  0  0  0  0  0  0
   -2.0913   -0.4257    0.0000 C   0  0  1  0  0  0  0  0  0  0  0  0
   -1.2749    0.9749    0.0000 C   0  0  0  0  0  0  0  0  0  0  0  0
   -2.9025   -0.9247    0.0000 C   0  0  2  0  0  0  0  0  0  0  0  0
    1.5015    1.2369    0.0000 C   0  0  2  0  0  0  0  0  0  0  0  0
    0.3527    1.9424    0.0000 C   0  0  2  0  0  0  0  0  0  0  0  0
    2.3479    1.3831    0.0000 O   0  0  0  0  0  0  0  0  0  0  0  0
    0.3527    0.9749    0.0000 C   0  0  0  0  0  0  0  0  0  0  0  0
   -2.4188   -1.7361    0.0000 C   0  0  0  0  0  0  0  0  0  0  0  0
    0.4937   -0.1083    0.0000 C   0  0  0  0  0  0  0  0  0  0  0  0
   -1.2749   -0.9196    0.0000 C   0  0  0  0  0  0  0  0  0  0  0  0
   -1.2749    1.9273    0.0000 C   0  0  0  0  0  0  0  0  0  0  0  0
    2.8871    0.5516    0.0000 C   0  0  0  0  0  0  0  0  0  0  0  0
   -0.4586   -0.4257    0.0000 C   0  0  0  0  0  0  0  0  0  0  0  0
   -0.4886    2.3860    0.0000 C   0  0  0  0  0  0  0  0  0  0  0  0
   -2.9225   -2.5874    0.0000 O   0  0  0  0  0  0  0  0  0  0  0  0
    2.5144   -0.4358    0.0000 O   0  0  0  0  0  0  0  0  0  0  0  0
   -2.9025    0.9749    0.0000 C   0  0  0  0  0  0  0  0  0  0  0  0
   -1.4059   -1.7361    0.0000 O   0  0  0  0  0  0  0  0  0  0  0  0
   -2.0913    1.4436    0.0000 C   0  0  0  0  0  0  0  0  0  0  0  0
   -3.7288   -0.4257    0.0000 C   0  0  0  0  0  0  0  0  0  0  0  0
   -3.8194   -1.5193    0.0000 C   0  0  0  0  0  0  0  0  0  0  0  0
    1.3857    2.5874    0.0000 C   0  0  0  0  0  0  0  0  0  0  0  0
   -3.7288    0.4912    0.0000 C   0  0  0  0  0  0  0  0  0  0  0  0
    3.8194    0.6928    0.0000 C   0  0  0  0  0  0  0  0  0  0  0  0
   -2.0862   -1.1111    0.0000 H   0  0  0  0  0  0  0  0  0  0  0  0
  4  2  1  0  0  0  0
  3 12  1  0  0  0  0
  4  1  1  0  0  0  0
  5  3  1  0  0  0  0
  6 11  1  6  0  0  0
  7  9  1  0  0  0  0
  8  6  1  0  0  0  0
  9  1  1  0  0  0  0
  5 10  1  6  0  0  0
  1 11  1  6  0  0  0
 12 15  1  0  0  0  0
 13  4  1  0  0  0  0
 14  8  1  0  0  0  0
 15  1  1  0  0  0  0
 16  7  1  0  0  0  0
 17 10  2  0  0  0  0
 18 14  2  0  0  0  0
 19  2  1  0  0  0  0
 20 10  1  0  0  0  0
  2 21  1  6  0  0  0
 22  5  1  0  0  0  0
  5 23  1  1  0  0  0
  7 24  1  1  0  0  0
 25 19  1  0  0  0  0
 26 14  1  0  0  0  0
  3 27  1  1  0  0  0
  7  6  1  6  0  0  0
  2  3  1  0  0  0  0
 16 13  1  0  0  0  0
 25 22  1  0  0  0  0
M  END
>  <IDNUMBER> (N062-0012)
N062-0012

>  <available> (N062-0012)
312

>  <H_acceptor> (N062-0012)
4

>  <H_donor> (N062-0012)
1

>  <B_rotN> (N062-0012)
4

>  <N_O> (N062-0012)
4

>  <logP> (N062-0012)
4.18

>  <logD> (N062-0012)
3.46

>  <logSw> (N062-0012)
-3.28

>  <PSA> (N062-0012)
63.6

>  <Chiral_centers> (N062-0012)
7

>  <Name> (N062-0012)
14-(ACETYLOXY)-5,9,13-TRIMETHYLTETRACYCLO[11.2.1.0^(1,10).0^(4,9)]HEXADECANE-5-CARBOXYLIC ACID

>  <Smile> (N062-0012)
[C@]123C([C@]4([C@@]([C@](C(=O)O)(CCC4)C)(CC1)[H])C)CC[C@]([C@@H](C2)OC(=O)C)(C3)C

>  <Collection> (N062-0012)
DC

>  <InChI Key> (N062-0012)
CSADACRWWVVNQF-DYWIXCFJSA-N

>  <PERCENTSP3> (N062-0012)
90.9

$$$$

  -ISIS-  -- StrEd -- 

 36 40  0  0  0  0  0  0  0  0999 V2000
    0.5182    0.1875    0.0000 C   0  0  0  0  0  0  0  0  0  0  0  0
   -0.3285   -1.3533    0.0000 C   0  0  1  0  0  0  0  0  0  0  0  0
    0.5182   -0.8305    0.0000 C   0  0  2  0  0  0  0  0  0  0  0  0
   -2.0588   -1.3533    0.0000 C   0  0  2  0  0  0  0  0  0  0  0  0
   -1.1937   -0.8305    0.0000 C   0  0  0  0  0  0  0  0  0  0  0  0
   -0.3701    0.6545    0.0000 C   0  0  0  0  0  0  0  0  0  0  0  0
   -1.1937    0.1688    0.0000 C   0  0  0  0  0  0  0  0  0  0  0  0
   -2.0588   -2.2971    0.0000 C   0  0  0  0  0  0  0  0  0  0  0  0
    1.3741    0.6778    0.0000 C   0  0  1  0  0  0  0  0  0  0  0  0
   -2.9240   -2.8293    0.0000 C   0  0  1  0  0  0  0  0  0  0  0  0
    2.2255    2.2000    0.0000 C   0  0  1  0  0  0  0  0  0  0  0  0
    1.3602    1.6865    0.0000 C   0  0  0  0  0  0  0  0  0  0  0  0
    2.2393    0.1875    0.0000 C   0  0  1  0  0  0  0  0  0  0  0  0
   -0.3285   -2.2971    0.0000 C   0  0  0  0  0  0  0  0  0  0  0  0
    3.0814    2.6858    0.0000 C   0  0  0  0  0  0  0  0  0  0  0  0
   -2.9240   -0.8305    0.0000 C   0  0  0  0  0  0  0  0  0  0  0  0
    1.3741   -1.2979    0.0000 C   0  0  0  0  0  0  0  0  0  0  0  0
   -1.1937   -2.8200    0.0000 C   0  0  0  0  0  0  0  0  0  0  0  0
   -3.7801   -2.2971    0.0000 C   0  0  0  0  0  0  0  0  0  0  0  0
   -2.0358    0.7009    0.0000 O   0  0  0  0  0  0  0  0  0  0  0  0
    2.2393   -0.8119    0.0000 C   0  0  0  0  0  0  0  0  0  0  0  0
    3.0953    1.7094    0.0000 C   0  0  0  0  0  0  0  0  0  0  0  0
    3.0953    0.7009    0.0000 C   0  0  0  0  0  0  0  0  0  0  0  0
    3.0583    3.6852    0.0000 O   0  0  0  0  0  0  0  0  0  0  0  0
   -3.7801   -1.3533    0.0000 C   0  0  0  0  0  0  0  0  0  0  0  0
   -0.3378   -0.4558    0.0000 C   0  0  0  0  0  0  0  0  0  0  0  0
   -2.0588   -0.3447    0.0000 C   0  0  0  0  0  0  0  0  0  0  0  0
    0.5182   -1.7975    0.0000 C   0  0  0  0  0  0  0  0  0  0  0  0
    3.9698    2.2323    0.0000 O   0  0  0  0  0  0  0  0  0  0  0  0
   -2.4011   -3.6852    0.0000 C   0  0  0  0  0  0  0  0  0  0  0  0
   -3.8818   -3.4632    0.0000 C   0  0  0  0  0  0  0  0  0  0  0  0
   -4.8026   -2.8293    0.0000 O   0  0  0  0  0  0  0  0  0  0  0  0
    1.3510    2.6765    0.0000 C   0  0  0  0  0  0  0  0  0  0  0  0
    3.1368   -0.3539    0.0000 C   0  0  0  0  0  0  0  0  0  0  0  0
    4.8026    2.7643    0.0000 C   0  0  0  0  0  0  0  0  0  0  0  0
    0.5599    1.1868    0.0000 H   0  0  0  0  0  0  0  0  0  0  0  0
  2  3  1  0  0  0  0
  3  1  1  0  0  0  0
  5  4  1  0  0  0  0
  5  7  1  0  0  0  0
  6  1  2  0  0  0  0
  7  6  1  0  0  0  0
  8  4  1  0  0  0  0
  9  1  1  0  0  0  0
 10  8  1  0  0  0  0
 11 12  1  0  0  0  0
 12  9  1  0  0  0  0
 13  9  1  0  0  0  0
 14  2  1  0  0  0  0
 11 15  1  1  0  0  0
 16  4  1  0  0  0  0
 17  3  1  0  0  0  0
 18 14  1  0  0  0  0
 19 25  1  0  0  0  0
 20  7  2  0  0  0  0
 21 13  1  0  0  0  0
 22 23  1  0  0  0  0
 23 13  1  0  0  0  0
 24 15  2  0  0  0  0
 25 16  1  0  0  0  0
  2 26  1  1  0  0  0
  4 27  1  1  0  0  0
  3 28  1  6  0  0  0
 29 15  1  0  0  0  0
 10 30  1  6  0  0  0
 10 31  1  1  0  0  0
 19 32  1  0  0  0  0
 11 33  1  6  0  0  0
 13 34  1  1  0  0  0
 35 29  1  0  0  0  0
  9 36  1  6  0  0  0
 17 21  1  0  0  0  0
  2  5  1  0  0  0  0
 22 11  1  0  0  0  0
 18  8  1  0  0  0  0
 19 10  1  0  0  0  0
M  END
>  <IDNUMBER> (N064-0035)
N064-0035

>  <available> (N064-0035)
124

>  <H_acceptor> (N064-0035)
4

>  <H_donor> (N064-0035)
1

>  <B_rotN> (N064-0035)
3

>  <N_O> (N064-0035)
4

>  <logP> (N064-0035)
5.64

>  <logD> (N064-0035)
7.65

>  <logSw> (N064-0035)
-9.13

>  <PSA> (N064-0035)
63.6

>  <Chiral_centers> (N064-0035)
9

>  <Name> (N064-0035)
methyl 10-hydroxy-2,4a,6a,6b,9,9,12a-heptamethyl-13-oxo-1,2,3,4,4a,5,6,6a,6b,7,8,8a,9,10,11,12,12a,12b,13,14b-icosahydropicene-2-carboxylate

>  <Smile> (N064-0035)
COC(C1(CC2C3=CC(C4C(C)(CCC5C4(C)CCC(C5(C)C)O)C3(C)CCC2(C)CC1)=O)C)=O

>  <Collection> (N064-0035)
DC

>  <InChI Key> (N064-0035)
RMIVRCBSQPCSCQ-RWTMRYCTSA-N

>  <PERCENTSP3> (N064-0035)
87.1

$$$$

  -ISIS-  -- StrEd -- 

 35 39  0  0  0  0  0  0  0  0999 V2000
   -0.3476   -0.6078    0.0000 C   0  0  1  0  0  0  0  0  0  0  0  0
   -1.1063   -1.0376    0.0000 C   0  0  1  0  0  0  0  0  0  0  0  0
   -2.6328   -1.0376    0.0000 C   0  0  2  0  0  0  0  0  0  0  0  0
   -0.3476    0.2698    0.0000 C   0  0  0  0  0  0  0  0  0  0  0  0
   -1.8832   -0.6078    0.0000 C   0  0  0  0  0  0  0  0  0  0  0  0
   -2.6328   -2.0249    0.0000 C   0  0  0  0  0  0  0  0  0  0  0  0
    0.6170    0.9508    0.0000 C   0  0  0  0  0  0  0  0  0  0  0  0
   -3.4556   -2.5048    0.0000 C   0  0  2  0  0  0  0  0  0  0  0  0
    1.5816    0.4023    0.0000 C   0  0  0  0  0  0  0  0  0  0  0  0
    0.8913    1.9153    0.0000 C   0  0  0  0  0  0  0  0  0  0  0  0
   -1.1063   -2.0249    0.0000 C   0  0  0  0  0  0  0  0  0  0  0  0
    0.6170   -1.2570    0.0000 C   0  0  0  0  0  0  0  0  0  0  0  0
   -1.1063    0.7406    0.0000 C   0  0  0  0  0  0  0  0  0  0  0  0
   -3.4556   -0.6078    0.0000 C   0  0  0  0  0  0  0  0  0  0  0  0
   -1.8832    0.2698    0.0000 C   0  0  0  0  0  0  0  0  0  0  0  0
   -1.8832   -2.5048    0.0000 C   0  0  0  0  0  0  0  0  0  0  0  0
    0.2741    2.6833    0.0000 C   0  0  0  0  0  0  0  0  0  0  0  0
    1.8466    2.0158    0.0000 C   0  0  0  0  0  0  0  0  0  0  0  0
   -4.2236   -2.0249    0.0000 C   0  0  0  0  0  0  0  0  0  0  0  0
    4.3880   -0.2789    0.0000 C   0  0  0  0  0  0  0  0  0  0  0  0
    1.5816   -0.7084    0.0000 C   0  0  0  0  0  0  0  0  0  0  0  0
    2.2807    1.1245    0.0000 C   0  0  0  0  0  0  0  0  0  0  0  0
    2.6328   -0.2330    0.0000 C   0  0  0  0  0  0  0  0  0  0  0  0
   -4.2236   -1.0376    0.0000 C   0  0  0  0  0  0  0  0  0  0  0  0
    3.5243    0.2468    0.0000 O   0  0  0  0  0  0  0  0  0  0  0  0
    5.3754    0.1280    0.0000 O   0  0  0  0  0  0  0  0  0  0  0  0
    0.6261    3.5928    0.0000 C   0  0  0  0  0  0  0  0  0  0  0  0
   -0.3385   -1.6408    0.0000 C   0  0  0  0  0  0  0  0  0  0  0  0
   -1.1063   -0.1692    0.0000 C   0  0  0  0  0  0  0  0  0  0  0  0
   -2.6328   -0.1371    0.0000 C   0  0  0  0  0  0  0  0  0  0  0  0
   -3.9904   -3.5928    0.0000 C   0  0  0  0  0  0  0  0  0  0  0  0
   -2.7747   -3.4373    0.0000 C   0  0  0  0  0  0  0  0  0  0  0  0
   -5.3754   -2.7379    0.0000 O   0  0  0  0  0  0  0  0  0  0  0  0
   -0.6765    2.5278    0.0000 C   0  0  0  0  0  0  0  0  0  0  0  0
    4.3699   -1.2661    0.0000 C   0  0  0  0  0  0  0  0  0  0  0  0
  2  1  1  0  0  0  0
  5  3  1  0  0  0  0
  4  1  1  0  0  0  0
  5  2  1  0  0  0  0
  6 16  1  0  0  0  0
  7  4  1  0  0  0  0
  8  6  1  0  0  0  0
  9 21  1  0  0  0  0
 10  7  1  0  0  0  0
 11  2  1  0  0  0  0
 12  1  1  0  0  0  0
 13  4  1  0  0  0  0
 14  3  1  0  0  0  0
 15 13  1  0  0  0  0
 16 11  1  0  0  0  0
 10 17  1  0  0  0  0
 18 10  1  0  0  0  0
 19  8  1  0  0  0  0
 20 25  1  0  0  0  0
 21 12  1  0  0  0  0
 22  9  1  0  0  0  0
  9 23  1  0  0  0  0
 24 14  1  0  0  0  0
 25 23  1  0  0  0  0
 26 20  2  0  0  0  0
 27 17  2  0  0  0  0
  1 28  1  6  0  0  0
  2 29  1  1  0  0  0
  3 30  1  1  0  0  0
  8 31  1  1  0  0  0
  8 32  1  6  0  0  0
 19 33  1  0  0  0  0
 34 17  1  0  0  0  0
 35 20  1  0  0  0  0
  7  9  1  0  0  0  0
 15  5  1  0  0  0  0
 22 18  1  0  0  0  0
  6  3  1  0  0  0  0
 19 24  1  0  0  0  0
M  END
>  <IDNUMBER> (N032-0003)
N032-0003

>  <available> (N032-0003)
18

>  <H_acceptor> (N032-0003)
3

>  <H_donor> (N032-0003)
1

>  <B_rotN> (N032-0003)
5

>  <N_O> (N032-0003)
3

>  <logP> (N032-0003)
6.69

>  <logD> (N032-0003)
7.28

>  <logSw> (N032-0003)
-10.04

>  <PSA> (N032-0003)
46.53

>  <Chiral_centers> (N032-0003)
10

>  <Name> (N032-0003)
[9-hydroxy-5a,5b,8,8,11a-pentamethyl-1-(prop-1-en-2-yl)-icosahydro-1H-cyclopenta[a]chrysen-3a-yl]methyl acetate

>  <Smile> (N032-0003)
CC(OCC12C(C3C(CC2)(C2(C)C(C4(CCC(C(C4CC2)(C)C)O)C)CC3)C)C(CC1)C(=C)C)=O

>  <Collection> (N032-0003)
DC

>  <InChI Key> (N032-0003)
PNDHMMQVMNVWPV-BCCLYDGLSA-N

>  <PERCENTSP3> (N032-0003)
90.6

$$$$

  -ISIS-  -- StrEd -- 

 35 39  0  0  0  0  0  0  0  0999 V2000
    0.9740   -0.2520    0.0000 C   0  0  1  0  0  0  0  0  0  0  0  0
    0.2131   -0.6829    0.0000 C   0  0  1  0  0  0  0  0  0  0  0  0
   -1.3181   -0.6829    0.0000 C   0  0  2  0  0  0  0  0  0  0  0  0
    0.9740    0.6281    0.0000 C   0  0  0  0  0  0  0  0  0  0  0  0
   -0.5661   -0.2520    0.0000 C   0  0  0  0  0  0  0  0  0  0  0  0
   -1.3181   -1.6732    0.0000 C   0  0  0  0  0  0  0  0  0  0  0  0
    1.9414    1.3111    0.0000 C   0  0  0  0  0  0  0  0  0  0  0  0
   -2.1430   -2.1545    0.0000 C   0  0  1  0  0  0  0  0  0  0  0  0
    2.2165    2.2784    0.0000 C   0  0  0  0  0  0  0  0  0  0  0  0
    2.9086    0.7610    0.0000 C   0  0  0  0  0  0  0  0  0  0  0  0
   -2.9133   -1.6732    0.0000 C   0  0  0  0  0  0  0  0  0  0  0  0
    0.2131   -1.6732    0.0000 C   0  0  0  0  0  0  0  0  0  0  0  0
    1.9414   -0.9029    0.0000 C   0  0  0  0  0  0  0  0  0  0  0  0
    0.2131    1.1003    0.0000 C   0  0  0  0  0  0  0  0  0  0  0  0
   -2.1430   -0.2520    0.0000 C   0  0  0  0  0  0  0  0  0  0  0  0
   -0.5661    0.6281    0.0000 C   0  0  0  0  0  0  0  0  0  0  0  0
   -0.5661   -2.1545    0.0000 C   0  0  0  0  0  0  0  0  0  0  0  0
    1.5978    3.0485    0.0000 C   0  0  0  0  0  0  0  0  0  0  0  0
   -4.0685   -2.3884    0.0000 O   0  0  0  0  0  0  0  0  0  0  0  0
    3.1745    2.3792    0.0000 C   0  0  0  0  0  0  0  0  0  0  0  0
   -4.0456   -3.3785    0.0000 C   0  0  0  0  0  0  0  0  0  0  0  0
    2.9086   -0.3529    0.0000 C   0  0  0  0  0  0  0  0  0  0  0  0
    3.6101    1.4853    0.0000 C   0  0  0  0  0  0  0  0  0  0  0  0
   -2.9133   -0.6829    0.0000 C   0  0  0  0  0  0  0  0  0  0  0  0
   -3.1974   -3.9607    0.0000 O   0  0  0  0  0  0  0  0  0  0  0  0
    1.9505    3.9607    0.0000 C   0  0  0  0  0  0  0  0  0  0  0  0
    0.9834   -1.2880    0.0000 C   0  0  0  0  0  0  0  0  0  0  0  0
    0.2131    0.1881    0.0000 C   0  0  0  0  0  0  0  0  0  0  0  0
   -1.3181    0.2199    0.0000 C   0  0  0  0  0  0  0  0  0  0  0  0
   -1.4600   -3.0898    0.0000 C   0  0  0  0  0  0  0  0  0  0  0  0
   -2.6795   -3.2455    0.0000 C   0  0  0  0  0  0  0  0  0  0  0  0
    3.9631    0.1239    0.0000 C   0  0  0  0  0  0  0  0  0  0  0  0
    4.8570    0.6050    0.0000 O   0  0  0  0  0  0  0  0  0  0  0  0
    0.6442    2.8928    0.0000 C   0  0  0  0  0  0  0  0  0  0  0  0
   -4.8570   -3.8598    0.0000 C   0  0  0  0  0  0  0  0  0  0  0  0
  2  1  1  0  0  0  0
  5  3  1  0  0  0  0
  4  1  1  0  0  0  0
  5  2  1  0  0  0  0
  6 17  1  0  0  0  0
  7  4  1  0  0  0  0
  8  6  1  0  0  0  0
  9  7  1  0  0  0  0
 10 22  1  0  0  0  0
 11  8  1  0  0  0  0
 12  2  1  0  0  0  0
 13  1  1  0  0  0  0
 14  4  1  0  0  0  0
 15  3  1  0  0  0  0
 16 14  1  0  0  0  0
 17 12  1  0  0  0  0
  9 18  1  0  0  0  0
 11 19  1  0  0  0  0
 20  9  1  0  0  0  0
 21 19  1  0  0  0  0
 22 13  1  0  0  0  0
 23 10  1  0  0  0  0
 24 15  1  0  0  0  0
 25 21  2  0  0  0  0
 26 18  2  0  0  0  0
  1 27  1  6  0  0  0
  2 28  1  1  0  0  0
  3 29  1  1  0  0  0
  8 30  1  6  0  0  0
  8 31  1  1  0  0  0
 10 32  1  0  0  0  0
 33 32  1  0  0  0  0
 34 18  1  0  0  0  0
 35 21  1  0  0  0  0
  7 10  1  0  0  0  0
 16  5  1  0  0  0  0
 23 20  1  0  0  0  0
  6  3  1  0  0  0  0
 11 24  1  0  0  0  0
M  END
>  <IDNUMBER> (N032-0002)
N032-0002

>  <available> (N032-0002)
376

>  <H_acceptor> (N032-0002)
3

>  <H_donor> (N032-0002)
1

>  <B_rotN> (N032-0002)
5

>  <N_O> (N032-0002)
3

>  <logP> (N032-0002)
6.69

>  <logD> (N032-0002)
7.6

>  <logSw> (N032-0002)
-8.97

>  <PSA> (N032-0002)
46.53

>  <Chiral_centers> (N032-0002)
10

>  <Name> (N032-0002)
3a-(hydroxymethyl)-5a,5b,8,8,11a-pentamethyl-1-(prop-1-en-2-yl)-icosahydro-1H-cyclopenta[a]chrysen-9-yl acetate

>  <Smile> (N032-0002)
CC(OC1C(C2C(C3C(C4(CCC5(C(C4CC3)C(CC5)C(=C)C)CO)C)(C)CC2)(CC1)C)(C)C)=O

>  <Collection> (N032-0002)
DC

>  <InChI Key> (N032-0002)
XUDTWJGGQFHXCR-BCCLYDGLSA-N

>  <PERCENTSP3> (N032-0002)
90.6

$$$$

  -ISIS-  -- StrEd -- 

 36 40  0  0  0  0  0  0  0  0999 V2000
    1.7609   -0.7842    0.0000 C   0  0  1  0  0  0  0  0  0  0  0  0
    0.8976   -1.2885    0.0000 C   0  0  1  0  0  0  0  0  0  0  0  0
   -0.8762   -1.2885    0.0000 C   0  0  2  0  0  0  0  0  0  0  0  0
    1.7609    0.2415    0.0000 C   0  0  0  0  0  0  0  0  0  0  0  0
   -0.0041   -0.7842    0.0000 C   0  0  0  0  0  0  0  0  0  0  0  0
   -0.8762   -2.3229    0.0000 C   0  0  0  0  0  0  0  0  0  0  0  0
    2.6328    0.7331    0.0000 C   0  0  0  0  0  0  0  0  0  0  0  0
   -1.7694   -2.8272    0.0000 C   0  0  1  0  0  0  0  0  0  0  0  0
    3.5261    0.2415    0.0000 C   0  0  0  0  0  0  0  0  0  0  0  0
    2.8679    1.7375    0.0000 C   0  0  0  0  0  0  0  0  0  0  0  0
   -2.6499   -2.3229    0.0000 C   0  0  0  0  0  0  0  0  0  0  0  0
    0.8888   -2.3229    0.0000 C   0  0  0  0  0  0  0  0  0  0  0  0
    2.6328   -1.2885    0.0000 C   0  0  0  0  0  0  0  0  0  0  0  0
    0.8804    0.7545    0.0000 C   0  0  0  0  0  0  0  0  0  0  0  0
   -1.7694   -0.7842    0.0000 C   0  0  0  0  0  0  0  0  0  0  0  0
   -0.0041    0.2415    0.0000 C   0  0  0  0  0  0  0  0  0  0  0  0
   -0.0041   -2.8272    0.0000 C   0  0  0  0  0  0  0  0  0  0  0  0
    2.2226    2.5067    0.0000 C   0  0  0  0  0  0  0  0  0  0  0  0
   -3.5006   -2.8357    0.0000 O   0  0  0  0  0  0  0  0  0  0  0  0
    3.8553    1.8316    0.0000 C   0  0  0  0  0  0  0  0  0  0  0  0
   -4.3639   -2.3530    0.0000 C   0  0  0  0  0  0  0  0  0  0  0  0
    3.5261   -0.7842    0.0000 C   0  0  0  0  0  0  0  0  0  0  0  0
    4.2529    0.8784    0.0000 C   0  0  0  0  0  0  0  0  0  0  0  0
   -2.6499   -1.2885    0.0000 C   0  0  0  0  0  0  0  0  0  0  0  0
    4.4495   -1.2588    0.0000 N   0  0  0  0  0  0  0  0  0  0  0  0
    4.4495   -0.2628    0.0000 C   0  0  0  0  0  0  0  0  0  0  0  0
   -5.3084   -2.7844    0.0000 O   0  0  0  0  0  0  0  0  0  0  0  0
    2.5731    3.4429    0.0000 C   0  0  0  0  0  0  0  0  0  0  0  0
    1.7609   -1.7203    0.0000 C   0  0  0  0  0  0  0  0  0  0  0  0
    0.8888   -0.3739    0.0000 C   0  0  0  0  0  0  0  0  0  0  0  0
   -0.8762   -0.4039    0.0000 C   0  0  0  0  0  0  0  0  0  0  0  0
    5.3084   -1.7203    0.0000 O   0  0  0  0  0  0  0  0  0  0  0  0
   -1.1027   -3.4429    0.0000 C   0  0  0  0  0  0  0  0  0  0  0  0
   -2.4362   -3.4429    0.0000 C   0  0  0  0  0  0  0  0  0  0  0  0
    1.2394    2.3443    0.0000 C   0  0  0  0  0  0  0  0  0  0  0  0
   -4.3639   -1.3998    0.0000 C   0  0  0  0  0  0  0  0  0  0  0  0
  2  1  1  0  0  0  0
  5  3  1  0  0  0  0
  4  1  1  0  0  0  0
  5  2  1  0  0  0  0
  6 17  1  0  0  0  0
  7  4  1  0  0  0  0
  8  6  1  0  0  0  0
  9 22  1  0  0  0  0
 10  7  1  0  0  0  0
 11  8  1  0  0  0  0
 12  2  1  0  0  0  0
 13  1  1  0  0  0  0
 14  4  1  0  0  0  0
 15  3  1  0  0  0  0
 16 14  1  0  0  0  0
 17 12  1  0  0  0  0
 10 18  1  0  0  0  0
 11 19  1  0  0  0  0
 20 10  1  0  0  0  0
 21 19  1  0  0  0  0
 22 13  1  0  0  0  0
 23  9  1  0  0  0  0
 24 15  1  0  0  0  0
 25 26  2  0  0  0  0
  9 26  1  0  0  0  0
 27 21  2  0  0  0  0
 28 18  2  0  0  0  0
  1 29  1  6  0  0  0
  2 30  1  1  0  0  0
  3 31  1  1  0  0  0
 32 25  1  0  0  0  0
  8 33  1  6  0  0  0
  8 34  1  1  0  0  0
 35 18  1  0  0  0  0
 36 21  1  0  0  0  0
  7  9  1  0  0  0  0
 16  5  1  0  0  0  0
 20 23  1  0  0  0  0
  6  3  1  0  0  0  0
 11 24  1  0  0  0  0
M  END
>  <IDNUMBER> (N069-0073)
N069-0073

>  <available> (N069-0073)
353

>  <H_acceptor> (N069-0073)
4

>  <H_donor> (N069-0073)
1

>  <B_rotN> (N069-0073)
5

>  <N_O> (N069-0073)
4

>  <logP> (N069-0073)
6.85

>  <logD> (N069-0073)
8

>  <logSw> (N069-0073)
-9.32

>  <PSA> (N069-0073)
58.89

>  <Chiral_centers> (N069-0073)
10

>  <Name> (N069-0073)
3a-[(E)-(hydroxyimino)methyl]-5a,5b,8,8,11a-pentamethyl-1-(prop-1-en-2-yl)-icosahydro-1H-cyclopenta[a]chrysen-9-yl acetate

>  <Smile> (N069-0073)
CC(OC1C(C2C(C3C(C4(CCC5(C(C4CC3)C(CC5)C(=C)C)C=NO)C)(C)CC2)(CC1)C)(C)C)=O

>  <Collection> (N069-0073)
DC

>  <InChI Key> (N069-0073)
OSJWUPILPXIQLP-MDCPZKJZSA-N

>  <PERCENTSP3> (N069-0073)
87.5

$$$$

  -ISIS-  -- StrEd -- 

 36 42  0  0  0  0  0  0  0  0999 V2000
    0.5416   -0.7772    0.0000 C   0  0  2  0  0  0  0  0  0  0  0  0
   -0.9077   -0.0565    0.0000 C   0  0  1  0  0  0  0  0  0  0  0  0
    0.7012   -0.1032    0.0000 C   0  0  2  0  0  0  0  0  0  0  0  0
   -0.4674    0.4929    0.0000 C   0  0  1  0  0  0  0  0  0  0  0  0
    0.2805    0.4929    0.0000 C   0  0  0  0  0  0  0  0  0  0  0  0
   -0.9077    0.6992    0.0000 C   0  0  2  0  0  0  0  0  0  0  0  0
   -0.7557   -0.7499    0.0000 C   0  0  0  0  0  0  0  0  0  0  0  0
   -0.1208   -1.0576    0.0000 C   0  0  2  0  0  0  0  0  0  0  0  0
   -1.6088   -0.3953    0.0000 N   0  0  0  0  0  0  0  0  0  0  0  0
   -1.2897   -1.2445    0.0000 C   0  0  2  0  0  0  0  0  0  0  0  0
    0.6818    1.3070    0.0000 C   0  0  2  0  0  0  0  0  0  0  0  0
   -0.0273    1.8212    0.0000 C   0  0  2  0  0  0  0  0  0  0  0  0
    2.9178    2.0199    0.0000 C   0  0  0  0  0  0  0  0  0  0  0  0
   -0.8687    1.3265    0.0000 C   0  0  0  0  0  0  0  0  0  0  0  0
   -1.9049   -1.7861    0.0000 C   0  0  0  0  0  0  0  0  0  0  0  0
   -0.0273    2.8418    0.0000 C   0  0  2  0  0  0  0  0  0  0  0  0
    1.1610   -1.3381    0.0000 O   0  0  0  0  0  0  0  0  0  0  0  0
    1.6635   -0.1149    0.0000 O   0  0  0  0  0  0  0  0  0  0  0  0
   -0.1129   -1.8134    0.0000 O   0  0  0  0  0  0  0  0  0  0  0  0
   -1.5972    0.1656    0.0000 C   0  0  2  0  0  0  0  0  0  0  0  0
    0.7129   -2.2730    0.0000 C   0  0  0  0  0  0  0  0  0  0  0  0
   -1.9830   -1.0187    0.0000 C   0  0  0  0  0  0  0  0  0  0  0  0
    2.0023   -0.8784    0.0000 C   0  0  0  0  0  0  0  0  0  0  0  0
    0.0273    1.0732    0.0000 O   0  0  0  0  0  0  0  0  0  0  0  0
    1.6088   -1.8601    0.0000 O   0  0  0  0  0  0  0  0  0  0  0  0
   -2.1309   -0.2980    0.0000 C   0  0  0  0  0  0  0  0  0  0  0  0
    1.5349    1.3070    0.0000 O   0  0  0  0  0  0  0  0  0  0  0  0
   -2.6451   -0.6174    0.0000 C   0  0  0  0  0  0  0  0  0  0  0  0
   -1.1687   -1.9381    0.0000 C   0  0  0  0  0  0  0  0  0  0  0  0
   -1.1219    3.1885    0.0000 O   0  0  0  0  0  0  0  0  0  0  0  0
   -1.7490    0.8590    0.0000 O   0  0  0  0  0  0  0  0  0  0  0  0
    0.7129   -3.1885    0.0000 C   0  0  0  0  0  0  0  0  0  0  0  0
    1.1414    2.0355    0.0000 C   0  0  0  0  0  0  0  0  0  0  0  0
   -2.0178    2.6432    0.0000 C   0  0  0  0  0  0  0  0  0  0  0  0
   -2.6529    1.1473    0.0000 C   0  0  0  0  0  0  0  0  0  0  0  0
   -2.9178   -1.4863    0.0000 C   0  0  0  0  0  0  0  0  0  0  0  0
  2  6  1  6  0  0  0
  3  1  1  0  0  0  0
  4  2  1  0  0  0  0
  5  3  1  0  0  0  0
  1  6  1  6  0  0  0
  7  8  1  0  0  0  0
  8  1  1  0  0  0  0
  6  9  1  6  0  0  0
 10  7  1  0  0  0  0
 11  5  1  0  0  0  0
 12 16  1  6  0  0  0
  3 13  1  6  0  0  0
 14  4  1  0  0  0  0
 15  9  1  0  0  0  0
 16 13  1  0  0  0  0
 17  1  1  0  0  0  0
  3 18  1  1  0  0  0
  8 19  1  1  0  0  0
 20  2  1  0  0  0  0
 21 19  1  0  0  0  0
 22 10  1  0  0  0  0
 23 17  1  0  0  0  0
  4 24  1  1  0  0  0
 25 21  2  0  0  0  0
 26 20  1  0  0  0  0
 11 27  1  6  0  0  0
 28  9  1  0  0  0  0
 10 29  1  1  0  0  0
 16 30  1  1  0  0  0
 20 31  1  6  0  0  0
 32 21  1  0  0  0  0
 33 27  1  0  0  0  0
 34 30  1  0  0  0  0
 35 31  1  0  0  0  0
 36 28  1  0  0  0  0
 23 18  1  0  0  0  0
  2  7  1  0  0  0  0
  4  5  1  0  0  0  0
 10 15  1  6  0  0  0
 26 22  1  0  0  0  0
 14 12  1  0  0  0  0
 12 11  1  0  0  0  0
M  END
>  <IDNUMBER> (N038-0222)
N038-0222

>  <available> (N038-0222)
162

>  <H_acceptor> (N038-0222)
9

>  <H_donor> (N038-0222)
1

>  <B_rotN> (N038-0222)
7

>  <N_O> (N038-0222)
9

>  <logP> (N038-0222)
-0.73

>  <logD> (N038-0222)
-1.9

>  <logSw> (N038-0222)
-1.99

>  <PSA> (N038-0222)
95.92

>  <Chiral_centers> (N038-0222)
13

>  <Name> (N038-0222)
14-ETHYL-2-HYDROXY-4,6,19-TRIMETHOXY-16-METHYL-9,11-DIOXA-14-AZAHEPTACYCLO[10.7.2.1^(2,5).0^(1,13).0^(3,8).0^(8,12).0^(16,20)]DOCOSAN-21-YL ACETATE

>  <Smile> (N038-0222)
CCN1C2C34OCOC53CC(C3C(C5C(C22C(C4OC(=O)C)C(C1)(C)CCC2OC)(O)C3)OC)OC

>  <Collection> (N038-0222)
NC

>  <InChI Key> (N038-0222)
DTTPWCNKTMQMTE-LXSUXYPPSA-N

>  <PERCENTSP3> (N038-0222)
96.3

$$$$

  -ISIS-  -- StrEd -- 

 42 45  0  0  0  0  0  0  0  0999 V2000
   -2.5100   -1.0623    0.0000 C   0  0  0  0  0  0  0  0  0  0  0  0
   -1.5448   -0.8386    0.0000 C   0  0  0  0  0  0  0  0  0  0  0  0
   -3.3106   -0.4561    0.0000 C   0  0  0  0  0  0  0  0  0  0  0  0
   -0.7562   -1.4447    0.0000 C   0  0  0  0  0  0  0  0  0  0  0  0
   -4.1754   -0.9681    0.0000 C   0  0  0  0  0  0  0  0  0  0  0  0
   -5.0643   -0.4561    0.0000 C   0  0  0  0  0  0  0  0  0  0  0  0
   -2.9573   -1.9568    0.0000 C   0  0  0  0  0  0  0  0  0  0  0  0
   -3.3106    0.5445    0.0000 C   0  0  0  0  0  0  0  0  0  0  0  0
   -1.1092    0.0499    0.0000 C   0  0  2  0  0  0  0  0  0  0  0  0
    5.3290    2.6220    0.0000 C   0  0  0  0  0  0  0  0  0  0  0  0
   -0.7445   -2.4628    0.0000 C   0  0  0  0  0  0  0  0  0  0  0  0
   -5.0643    0.5445    0.0000 C   0  0  0  0  0  0  0  0  0  0  0  0
   -2.5100   -2.8572    0.0000 C   0  0  0  0  0  0  0  0  0  0  0  0
   -1.5034   -3.0869    0.0000 C   0  0  0  0  0  0  0  0  0  0  0  0
    4.8524    1.7745    0.0000 C   0  0  0  0  0  0  0  0  0  0  0  0
   -4.1754    1.0682    0.0000 C   0  0  0  0  0  0  0  0  0  0  0  0
    1.3918    0.9152    0.0000 C   0  0  0  0  0  0  0  0  0  0  0  0
    2.3806    0.9152    0.0000 C   0  0  0  0  0  0  0  0  0  0  0  0
   -1.5448    0.9387    0.0000 C   0  0  0  0  0  0  0  0  0  0  0  0
   -0.1089    0.0499    0.0000 N   0  0  0  0  0  0  0  0  0  0  0  0
   -2.5100    1.1801    0.0000 C   0  0  0  0  0  0  0  0  0  0  0  0
    6.3178    2.6101    0.0000 C   0  0  0  0  0  0  0  0  0  0  0  0
    0.1500   -2.8749    0.0000 O   0  0  0  0  0  0  0  0  0  0  0  0
    5.3172    0.9152    0.0000 O   0  0  0  0  0  0  0  0  0  0  0  0
   -4.1754   -1.9568    0.0000 O   0  0  0  0  0  0  0  0  0  0  0  0
   -5.9529   -0.9681    0.0000 O   0  0  0  0  0  0  0  0  0  0  0  0
    3.8638    1.7745    0.0000 O   0  0  0  0  0  0  0  0  0  0  0  0
   -5.9529    1.0800    0.0000 O   0  0  0  0  0  0  0  0  0  0  0  0
   -1.2625   -4.0578    0.0000 O   0  0  0  0  0  0  0  0  0  0  0  0
    6.8002    1.7333    0.0000 Br  0  0  0  0  0  0  0  0  0  0  0  0
    0.3857    0.9152    0.0000 C   0  0  0  0  0  0  0  0  0  0  0  0
    4.8347    3.4988    0.0000 C   0  0  0  0  0  0  0  0  0  0  0  0
    3.3812    0.9152    0.0000 C   0  0  0  0  0  0  0  0  0  0  0  0
    0.3737   -0.8268    0.0000 C   0  0  0  0  0  0  0  0  0  0  0  0
    6.8298    3.4696    0.0000 C   0  0  0  0  0  0  0  0  0  0  0  0
   -5.0522   -2.4628    0.0000 C   0  0  0  0  0  0  0  0  0  0  0  0
   -6.8298   -0.4561    0.0000 C   0  0  0  0  0  0  0  0  0  0  0  0
   -6.8298    0.5737    0.0000 C   0  0  0  0  0  0  0  0  0  0  0  0
   -0.3031   -4.3286    0.0000 C   0  0  0  0  0  0  0  0  0  0  0  0
    5.3290    4.3286    0.0000 C   0  0  0  0  0  0  0  0  0  0  0  0
    6.3178    4.3169    0.0000 C   0  0  0  0  0  0  0  0  0  0  0  0
   -0.5562    0.8446    0.0000 H   0  0  0  0  0  0  0  0  0  0  0  0
  2  1  1  0  0  0  0
  3  1  1  0  0  0  0
  4  2  2  0  0  0  0
  5  3  1  0  0  0  0
  6  5  2  0  0  0  0
  7  1  2  0  0  0  0
  8  3  2  0  0  0  0
  9  2  1  0  0  0  0
 10 15  1  0  0  0  0
 11  4  1  0  0  0  0
 12 16  2  0  0  0  0
 13  7  1  0  0  0  0
 14 13  2  0  0  0  0
 15 27  1  0  0  0  0
 16  8  1  0  0  0  0
 17 31  1  0  0  0  0
 18 17  3  0  0  0  0
 19  9  1  0  0  0  0
  9 20  1  6  0  0  0
 21  8  1  0  0  0  0
 22 10  2  0  0  0  0
 23 11  2  0  0  0  0
 24 15  2  0  0  0  0
 25  5  1  0  0  0  0
 26  6  1  0  0  0  0
 27 33  1  0  0  0  0
 28 12  1  0  0  0  0
 29 14  1  0  0  0  0
 30 22  1  0  0  0  0
 31 20  1  0  0  0  0
 32 10  1  0  0  0  0
 33 18  1  0  0  0  0
 34 20  1  0  0  0  0
 35 22  1  0  0  0  0
 36 25  1  0  0  0  0
 37 26  1  0  0  0  0
 38 28  1  0  0  0  0
 39 29  1  0  0  0  0
 40 32  2  0  0  0  0
 41 40  1  0  0  0  0
  9 42  1  1  0  0  0
 11 14  1  0  0  0  0
 21 19  1  0  0  0  0
  6 12  1  0  0  0  0
 35 41  2  0  0  0  0
M  END
>  <IDNUMBER> (N051-0029)
N051-0029

>  <available> (N051-0029)
91

>  <H_acceptor> (N051-0029)
9

>  <H_donor> (N051-0029)
0

>  <B_rotN> (N051-0029)
11

>  <N_O> (N051-0029)
8

>  <logP> (N051-0029)
5.4

>  <logD> (N051-0029)
4.09

>  <logSw> (N051-0029)
-5.92

>  <PSA> (N051-0029)
83.53

>  <Chiral_centers> (N051-0029)
1

>  <Name> (N051-0029)
4-{methyl[(7S)-1,2,3,10-tetramethoxy-9-oxo-5,6,7,9-tetrahydrobenzo[a]heptalen-7-yl]amino}-2-butynyl 2-bromobenzoate

>  <Smile> (N051-0029)
c1cc(c(C(OCC#CCN(C2c3c(ccc(c(c3)=O)OC)c3c(c(c(cc3CC2)OC)OC)OC)C)=O)cc1)Br

>  <Collection> (N051-0029)
DC

>  <InChI Key> (N051-0029)
AFEBHDYFUCBLCW-VWLOTQADSA-N

>  <PERCENTSP3> (N051-0029)
31.3

$$$$

  -ISIS-  -- StrEd -- 

 33 35  0  0  1  0  0  0  0  0999 V2000
    0.1347   -0.0923    0.0000 C   0  0  0  0  0  0  0  0  0  0  0  0
    1.1742   -0.0923    0.0000 C   0  0  0  0  0  0  0  0  0  0  0  0
   -0.4559    0.7442    0.0000 C   0  0  0  0  0  0  0  0  0  0  0  0
   -1.4387    0.4607    0.0000 C   0  0  0  0  0  0  0  0  0  0  0  0
    1.8119   -0.8859    0.0000 C   0  0  0  0  0  0  0  0  0  0  0  0
   -2.1709    1.1741    0.0000 C   0  0  0  0  0  0  0  0  0  0  0  0
   -0.4984   -0.8859    0.0000 C   0  0  0  0  0  0  0  0  0  0  0  0
   -0.2149    1.7221    0.0000 C   0  0  0  0  0  0  0  0  0  0  0  0
    1.5662   -1.8639    0.0000 C   0  0  0  0  0  0  0  0  0  0  0  0
    1.8355    0.7442    0.0000 C   0  0  1  0  0  0  0  0  0  0  0  0
   -1.9301    2.1332    0.0000 C   0  0  0  0  0  0  0  0  0  0  0  0
    0.6214   -2.2844    0.0000 C   0  0  0  0  0  0  0  0  0  0  0  0
   -0.2716   -1.8781    0.0000 C   0  0  0  0  0  0  0  0  0  0  0  0
    2.5065   -0.0732    0.0000 N   0  0  0  0  0  0  0  0  0  0  0  0
   -0.9661    2.4166    0.0000 C   0  0  0  0  0  0  0  0  0  0  0  0
    2.8561   -0.9426    0.0000 C   0  0  0  0  0  0  0  0  0  0  0  0
    0.6639    2.1614    0.0000 C   0  0  0  0  0  0  0  0  0  0  0  0
    2.3600   -2.4876    0.0000 O   0  0  0  0  0  0  0  0  0  0  0  0
    1.5853    1.7269    0.0000 C   0  0  0  0  0  0  0  0  0  0  0  0
    2.4168   -1.5946    0.0000 O   0  0  0  0  0  0  0  0  0  0  0  0
    0.6024   -3.2955    0.0000 N   0  0  0  0  0  0  0  0  0  0  0  0
   -1.6890   -0.5175    0.0000 O   0  0  0  0  0  0  0  0  0  0  0  0
   -3.1348    0.9141    0.0000 O   0  0  0  0  0  0  0  0  0  0  0  0
   -2.6435    2.8041    0.0000 O   0  0  0  0  0  0  0  0  0  0  0  0
    3.8340   -0.9426    0.0000 C   0  0  0  0  0  0  0  0  0  0  0  0
    1.4577   -3.7915    0.0000 C   0  0  0  0  0  0  0  0  0  0  0  0
   -2.6435   -0.7726    0.0000 C   0  0  0  0  0  0  0  0  0  0  0  0
   -3.8340    1.6277    0.0000 C   0  0  0  0  0  0  0  0  0  0  0  0
   -2.4168    3.7915    0.0000 C   0  0  0  0  0  0  0  0  0  0  0  0
    2.3222   -3.3049    0.0000 C   0  0  0  0  0  0  0  0  0  0  0  0
    2.6482    1.2685    0.0000 H   0  0  0  0  0  0  0  0  0  0  0  0
    3.4939    0.0826    0.0000 H   0  0  0  0  0  0  0  0  0  0  0  0
   -0.2622   -3.7915    0.0000 H   0  0  0  0  0  0  0  0  0  0  0  0
  2  1  1  0  0  0  0
  3  1  1  0  0  0  0
  4  3  1  0  0  0  0
  5  2  2  0  0  0  0
  6  4  2  0  0  0  0
  7  1  2  0  0  0  0
  8  3  2  0  0  0  0
  9  5  1  0  0  0  0
 10  2  1  0  0  0  0
 11 15  2  0  0  0  0
 12 13  2  0  0  0  0
 13  7  1  0  0  0  0
 10 14  1  6  0  0  0
 15  8  1  0  0  0  0
 16 14  1  0  0  0  0
 17  8  1  0  0  0  0
 18  9  2  0  0  0  0
 19 10  1  0  0  0  0
 20 16  2  0  0  0  0
 21 12  1  0  0  0  0
 22  4  1  0  0  0  0
 23  6  1  0  0  0  0
 24 11  1  0  0  0  0
 25 16  1  0  0  0  0
 26 21  1  0  0  0  0
 27 22  1  0  0  0  0
 28 23  1  0  0  0  0
 29 24  1  0  0  0  0
 30 26  1  0  0  0  0
 10 31  1  1  0  0  0
 32 14  1  0  0  0  0
 33 21  1  0  0  0  0
 12  9  1  0  0  0  0
 19 17  1  0  0  0  0
 11  6  1  0  0  0  0
M  END
>  <IDNUMBER> (N051-0049)
N051-0049

>  <available> (N051-0049)
28

>  <H_acceptor> (N051-0049)
5

>  <H_donor> (N051-0049)
2

>  <B_rotN> (N051-0049)
7

>  <N_O> (N051-0049)
7

>  <logP> (N051-0049)
2.02

>  <logD> (N051-0049)
0.5

>  <logSw> (N051-0049)
0.59

>  <PSA> (N051-0049)
85.89

>  <Chiral_centers> (N051-0049)
1

>  <Name> (N051-0049)
N-[14-(ETHYLAMINO)-3,4,5-TRIMETHOXY-13-OXOTRICYCLO[9.5.0.0^(2,7)]HEXADECA-1(16),2,4,6,11,14-HEXAEN-10-YL]ACETAMIDE

>  <Smile> (N051-0049)
CCNc1c(cc2c(cc1)c1c(c(OC)c(cc1CCC2NC(=O)C)OC)OC)=O

>  <Collection> (N051-0049)
DC

>  <InChI Key> (N051-0049)
CPLZXOXDQRKDNH-KRWDZBQOSA-N

>  <PERCENTSP3> (N051-0049)
39.1

$$$$

  -ISIS-  -- StrEd -- 

 31 33  0  0  1  0  0  0  0  0999 V2000
    0.3026   -0.0915    0.0000 C   0  0  0  0  0  0  0  0  0  0  0  0
    1.3347   -0.0915    0.0000 C   0  0  0  0  0  0  0  0  0  0  0  0
   -0.2838    0.7388    0.0000 C   0  0  0  0  0  0  0  0  0  0  0  0
   -1.2596    0.4574    0.0000 C   0  0  0  0  0  0  0  0  0  0  0  0
    1.9680   -0.8796    0.0000 C   0  0  0  0  0  0  0  0  0  0  0  0
   -1.9867    1.1659    0.0000 C   0  0  0  0  0  0  0  0  0  0  0  0
   -0.3260   -0.8796    0.0000 C   0  0  0  0  0  0  0  0  0  0  0  0
   -0.0446    1.7098    0.0000 C   0  0  0  0  0  0  0  0  0  0  0  0
    1.7240   -1.8507    0.0000 C   0  0  0  0  0  0  0  0  0  0  0  0
   -1.7474    2.1181    0.0000 C   0  0  0  0  0  0  0  0  0  0  0  0
    0.7857   -2.2682    0.0000 C   0  0  0  0  0  0  0  0  0  0  0  0
   -0.1009   -1.8648    0.0000 C   0  0  0  0  0  0  0  0  0  0  0  0
   -0.7905    2.3995    0.0000 C   0  0  0  0  0  0  0  0  0  0  0  0
    1.9914    0.7388    0.0000 C   0  0  2  0  0  0  0  0  0  0  0  0
    0.8280    2.1461    0.0000 C   0  0  0  0  0  0  0  0  0  0  0  0
    2.5121   -2.4699    0.0000 O   0  0  0  0  0  0  0  0  0  0  0  0
    1.7428    1.7147    0.0000 C   0  0  0  0  0  0  0  0  0  0  0  0
    0.7670   -3.2722    0.0000 N   0  0  0  0  0  0  0  0  0  0  0  0
   -1.5082   -0.5138    0.0000 O   0  0  0  0  0  0  0  0  0  0  0  0
   -2.9437    0.9076    0.0000 O   0  0  0  0  0  0  0  0  0  0  0  0
    2.6576   -0.0727    0.0000 N   0  0  0  0  0  0  0  0  0  0  0  0
   -2.4558    2.7842    0.0000 O   0  0  0  0  0  0  0  0  0  0  0  0
    1.6161   -3.7646    0.0000 C   0  0  0  0  0  0  0  0  0  0  0  0
    3.0046   -0.9359    0.0000 C   0  0  0  0  0  0  0  0  0  0  0  0
   -2.4558   -0.7672    0.0000 C   0  0  0  0  0  0  0  0  0  0  0  0
   -3.6380    1.6160    0.0000 C   0  0  0  0  0  0  0  0  0  0  0  0
   -2.2307    3.7646    0.0000 C   0  0  0  0  0  0  0  0  0  0  0  0
    2.4747   -3.2816    0.0000 C   0  0  0  0  0  0  0  0  0  0  0  0
    2.7983    1.2595    0.0000 H   0  0  0  0  0  0  0  0  0  0  0  0
    3.6380    0.0820    0.0000 H   0  0  0  0  0  0  0  0  0  0  0  0
   -0.0915   -3.7646    0.0000 H   0  0  0  0  0  0  0  0  0  0  0  0
  2  1  1  0  0  0  0
  3  1  1  0  0  0  0
  4  3  1  0  0  0  0
  5  2  2  0  0  0  0
  6  4  2  0  0  0  0
  7  1  2  0  0  0  0
  8  3  2  0  0  0  0
  9  5  1  0  0  0  0
 10 13  2  0  0  0  0
 11 12  2  0  0  0  0
 12  7  1  0  0  0  0
 13  8  1  0  0  0  0
 14  2  1  0  0  0  0
 15  8  1  0  0  0  0
 16  9  2  0  0  0  0
 17 14  1  0  0  0  0
 18 11  1  0  0  0  0
 19  4  1  0  0  0  0
 20  6  1  0  0  0  0
 14 21  1  6  0  0  0
 22 10  1  0  0  0  0
 23 18  1  0  0  0  0
 24 21  1  0  0  0  0
 25 19  1  0  0  0  0
 26 20  1  0  0  0  0
 27 22  1  0  0  0  0
 28 23  1  0  0  0  0
 14 29  1  1  0  0  0
 30 21  1  0  0  0  0
 31 18  1  0  0  0  0
  9 11  1  0  0  0  0
 15 17  1  0  0  0  0
  6 10  1  0  0  0  0
M  END
>  <IDNUMBER> (N051-0050)
N051-0050

>  <available> (N051-0050)
15

>  <H_acceptor> (N051-0050)
5

>  <H_donor> (N051-0050)
2

>  <B_rotN> (N051-0050)
6

>  <N_O> (N051-0050)
6

>  <logP> (N051-0050)
2.76

>  <logD> (N051-0050)
0.77

>  <logSw> (N051-0050)
-0.98

>  <PSA> (N051-0050)
68.82

>  <Chiral_centers> (N051-0050)
1

>  <Name> (N051-0050)
14-(ETHYLAMINO)-3,4,5-TRIMETHOXY-10-(METHYLAMINO)TRICYCLO[9.5.0.0^(2,7)]HEXADECA-1(16),2,4,6,11,14-HEXAEN-13-ONE

>  <Smile> (N051-0050)
CCNc1c(cc2c(cc1)c1c(c(c(cc1CCC2NC)OC)OC)OC)=O

>  <Collection> (N051-0050)
DC

>  <InChI Key> (N051-0050)
BSKKTUATLKRYJW-INIZCTEOSA-N

>  <PERCENTSP3> (N051-0050)
40.9

$$$$

  -ISIS-  -- StrEd -- 

 35 38  0  0  1  0  0  0  0  0999 V2000
    0.1458    0.6402    0.0000 C   0  0  0  0  0  0  0  0  0  0  0  0
    1.1833    0.6402    0.0000 C   0  0  0  0  0  0  0  0  0  0  0  0
   -0.4537    1.4831    0.0000 C   0  0  0  0  0  0  0  0  0  0  0  0
   -1.4372    1.1969    0.0000 C   0  0  0  0  0  0  0  0  0  0  0  0
    1.8152   -0.1646    0.0000 C   0  0  0  0  0  0  0  0  0  0  0  0
    0.6214   -1.5318    0.0000 C   0  0  0  0  0  0  0  0  0  0  0  0
   -0.4971   -0.1646    0.0000 C   0  0  0  0  0  0  0  0  0  0  0  0
    1.5722   -1.1210    0.0000 C   0  0  0  0  0  0  0  0  0  0  0  0
   -2.1665    1.9100    0.0000 C   0  0  0  0  0  0  0  0  0  0  0  0
   -0.2216    2.4556    0.0000 C   0  0  0  0  0  0  0  0  0  0  0  0
   -0.2701   -1.1373    0.0000 C   0  0  0  0  0  0  0  0  0  0  0  0
    1.8317    1.4831    0.0000 C   0  0  1  0  0  0  0  0  0  0  0  0
    0.6214   -2.5206    0.0000 N   0  0  0  0  0  0  0  0  0  0  0  0
   -1.9289    2.8770    0.0000 C   0  0  0  0  0  0  0  0  0  0  0  0
    2.5014    0.6728    0.0000 N   0  0  0  0  0  0  0  0  0  0  0  0
   -0.9563    3.1418    0.0000 C   0  0  0  0  0  0  0  0  0  0  0  0
    2.8582   -0.2134    0.0000 C   0  0  0  0  0  0  0  0  0  0  0  0
    0.6701    2.8987    0.0000 C   0  0  0  0  0  0  0  0  0  0  0  0
    2.3502   -1.7425    0.0000 O   0  0  0  0  0  0  0  0  0  0  0  0
    1.5940    2.4556    0.0000 C   0  0  0  0  0  0  0  0  0  0  0  0
    2.4151   -0.8618    0.0000 O   0  0  0  0  0  0  0  0  0  0  0  0
   -1.6858    0.2243    0.0000 O   0  0  0  0  0  0  0  0  0  0  0  0
   -3.1228    1.6506    0.0000 O   0  0  0  0  0  0  0  0  0  0  0  0
   -2.6420    3.5471    0.0000 O   0  0  0  0  0  0  0  0  0  0  0  0
   -0.2594   -3.0391    0.0000 C   0  0  0  0  0  0  0  0  0  0  0  0
    1.4804   -3.0175    0.0000 C   0  0  0  0  0  0  0  0  0  0  0  0
    3.8252   -0.2134    0.0000 C   0  0  0  0  0  0  0  0  0  0  0  0
   -2.6420   -0.0405    0.0000 C   0  0  0  0  0  0  0  0  0  0  0  0
   -3.8252    2.3638    0.0000 C   0  0  0  0  0  0  0  0  0  0  0  0
   -2.4097    4.5303    0.0000 C   0  0  0  0  0  0  0  0  0  0  0  0
    1.4804   -4.0386    0.0000 C   0  0  0  0  0  0  0  0  0  0  0  0
   -0.2594   -4.0386    0.0000 C   0  0  0  0  0  0  0  0  0  0  0  0
    0.6214   -4.5303    0.0000 C   0  0  0  0  0  0  0  0  0  0  0  0
    3.5010    0.8240    0.0000 H   0  0  0  0  0  0  0  0  0  0  0  0
    2.6582    2.0018    0.0000 H   0  0  0  0  0  0  0  0  0  0  0  0
  2  1  1  0  0  0  0
  3  1  1  0  0  0  0
  4  3  1  0  0  0  0
  5  2  2  0  0  0  0
  6 11  2  0  0  0  0
  7  1  2  0  0  0  0
  8  5  1  0  0  0  0
  9  4  2  0  0  0  0
 10  3  2  0  0  0  0
 11  7  1  0  0  0  0
 12  2  1  0  0  0  0
 13  6  1  0  0  0  0
 14 16  2  0  0  0  0
 12 15  1  6  0  0  0
 16 10  1  0  0  0  0
 17 15  1  0  0  0  0
 18 10  1  0  0  0  0
 19  8  2  0  0  0  0
 20 12  1  0  0  0  0
 21 17  2  0  0  0  0
 22  4  1  0  0  0  0
 23  9  1  0  0  0  0
 24 14  1  0  0  0  0
 25 13  1  0  0  0  0
 26 13  1  0  0  0  0
 27 17  1  0  0  0  0
 28 22  1  0  0  0  0
 29 23  1  0  0  0  0
 30 24  1  0  0  0  0
 31 26  1  0  0  0  0
 32 25  1  0  0  0  0
 33 31  1  0  0  0  0
 34 15  1  0  0  0  0
 12 35  1  1  0  0  0
 18 20  1  0  0  0  0
  8  6  1  0  0  0  0
  9 14  1  0  0  0  0
 32 33  1  0  0  0  0
M  END
>  <IDNUMBER> (N051-0059)
N051-0059

>  <available> (N051-0059)
51

>  <H_acceptor> (N051-0059)
5

>  <H_donor> (N051-0059)
1

>  <B_rotN> (N051-0059)
6

>  <N_O> (N051-0059)
7

>  <logP> (N051-0059)
2.8

>  <logD> (N051-0059)
-0.43

>  <logSw> (N051-0059)
-1.42

>  <PSA> (N051-0059)
77.1

>  <Chiral_centers> (N051-0059)
1

>  <Name> (N051-0059)
N-[3,4,5-TRIMETHOXY-13-OXO-14-(PIPERIDIN-1-YL)TRICYCLO[9.5.0.0^(2,7)]HEXADECA-1(16),2,4,6,11,14-HEXAEN-10-YL]ACETAMIDE

>  <Smile> (N051-0059)
C1CCN(c2ccc3c4c(c(c(cc4CCC(c3cc2=O)NC(=O)C)OC)OC)OC)CC1

>  <Collection> (N051-0059)
DC

>  <InChI Key> (N051-0059)
WXVFMHNWBFGZHR-FQEVSTJZSA-N

>  <PERCENTSP3> (N051-0059)
46.2

$$$$

  -ISIS-  -- StrEd -- 

 27 32  0  0  0  0  0  0  0  0999 V2000
   -0.6852   -1.2121    0.0000 C   0  0  2  0  0  0  0  0  0  0  0  0
    0.9848   -1.2524    0.0000 C   0  0  1  0  0  0  0  0  0  0  0  0
    0.5471   -0.6305    0.0000 C   0  0  0  0  0  0  0  0  0  0  0  0
   -0.6852   -0.4233    0.0000 C   0  0  1  0  0  0  0  0  0  0  0  0
    0.8235   -1.9606    0.0000 C   0  0  1  0  0  0  0  0  0  0  0  0
   -0.2302   -0.6305    0.0000 C   0  0  0  0  0  0  0  0  0  0  0  0
   -0.5355   -1.9318    0.0000 C   0  0  0  0  0  0  0  0  0  0  0  0
   -1.4165   -1.5576    0.0000 N   0  0  0  0  0  0  0  0  0  0  0  0
    0.8235   -0.0087    0.0000 C   0  0  2  0  0  0  0  0  0  0  0  0
    0.0462    0.5039    0.0000 C   0  0  2  0  0  0  0  0  0  0  0  0
   -1.0881   -2.4443    0.0000 C   0  0  2  0  0  0  0  0  0  0  0  0
    2.7697    0.2505    0.0000 C   0  0  0  0  0  0  0  0  0  0  0  0
    0.1325   -2.2485    0.0000 C   0  0  0  0  0  0  0  0  0  0  0  0
   -0.4894    0.0028    0.0000 C   0  0  0  0  0  0  0  0  0  0  0  0
    0.0462    1.5632    0.0000 C   0  0  2  0  0  0  0  0  0  0  0  0
   -1.7217   -3.0086    0.0000 C   0  0  0  0  0  0  0  0  0  0  0  0
   -1.4051   -0.9760    0.0000 C   0  0  2  0  0  0  0  0  0  0  0  0
   -1.8022   -2.2084    0.0000 C   0  0  0  0  0  0  0  0  0  0  0  0
    1.6931   -1.2524    0.0000 O   0  0  0  0  0  0  0  0  0  0  0  0
   -1.9576   -1.4597    0.0000 C   0  0  0  0  0  0  0  0  0  0  0  0
    1.6238   -0.0087    0.0000 O   0  0  0  0  0  0  0  0  0  0  0  0
   -2.4932   -1.7937    0.0000 C   0  0  0  0  0  0  0  0  0  0  0  0
   -0.6736    2.2139    0.0000 O   0  0  0  0  0  0  0  0  0  0  0  0
   -0.9616   -3.1583    0.0000 C   0  0  0  0  0  0  0  0  0  0  0  0
   -1.5546   -0.2564    0.0000 O   0  0  0  0  0  0  0  0  0  0  0  0
   -0.4894    3.1583    0.0000 C   0  0  0  0  0  0  0  0  0  0  0  0
   -2.7697   -2.6920    0.0000 C   0  0  0  0  0  0  0  0  0  0  0  0
  2  3  1  0  0  0  0
  3  6  1  0  0  0  0
  1  4  1  6  0  0  0
  5  4  1  6  0  0  0
  6  1  1  0  0  0  0
  7  1  1  0  0  0  0
  4  8  1  6  0  0  0
  9  3  1  0  0  0  0
 10 14  1  0  0  0  0
 11  7  1  0  0  0  0
  2 12  1  6  0  0  0
 13  7  1  0  0  0  0
 14  6  1  0  0  0  0
 10 15  1  6  0  0  0
 11 16  1  6  0  0  0
 17  1  1  0  0  0  0
 18 20  1  0  0  0  0
  2 19  1  1  0  0  0
 20 17  1  0  0  0  0
  9 21  1  6  0  0  0
 22  8  1  0  0  0  0
 15 23  1  1  0  0  0
 11 24  1  1  0  0  0
 17 25  1  6  0  0  0
 26 23  1  0  0  0  0
 27 22  1  0  0  0  0
  5 13  1  0  0  0  0
  2  5  1  0  0  0  0
 18 11  1  0  0  0  0
 16  8  1  0  0  0  0
  9 10  1  0  0  0  0
 15 12  1  0  0  0  0
M  END
>  <IDNUMBER> (N060-0118)
N060-0118

>  <available> (N060-0118)
329

>  <Saltdata> (N060-0118)
HCl

>  <H_acceptor> (N060-0118)
5

>  <H_donor> (N060-0118)
3

>  <B_rotN> (N060-0118)
5

>  <N_O> (N060-0118)
5

>  <logP> (N060-0118)
1.28

>  <logD> (N060-0118)
-0.25

>  <logSw> (N060-0118)
-2.79

>  <PSA> (N060-0118)
73.16

>  <Chiral_centers> (N060-0118)
12

>  <Name> (N060-0118)
11-ETHYL-6-METHOXY-13-METHYL-11-AZAHEXACYCLO[7.7.2.1^(2,5).0^(1,10).0^(3,8).0^(13,17)]NONADECANE-4,8,16-TRIOL

>  <Smile> (N060-0118)
[C@@]123[C@H]4[C@@H]([C@@]5(C6C1C[C@@H]([C@@H]6O)[C@H](C5)OC)O)CC2[C@](CN4CC)(CC[C@@H]3O)C

>  <Collection> (N060-0118)
NC

>  <InChI Key> (N060-0118)
HKQZUYOVMYOFIT-AMZPMBQTSA-N

>  <PERCENTSP3> (N060-0118)
100

$$$$

  -ISIS-  -- StrEd -- 

 30 35  0  0  0  0  0  0  0  0999 V2000
   -0.9248    0.7394    0.0000 C   0  0  0  0  0  0  0  0  0  0  0  0
    0.8555    0.2746    0.0000 C   0  0  1  0  0  0  0  0  0  0  0  0
    0.4747    1.1102    0.0000 C   0  0  0  0  0  0  0  0  0  0  0  0
   -0.9348    1.6247    0.0000 C   0  0  0  0  0  0  0  0  0  0  0  0
    0.4400   -0.5118    0.0000 C   0  0  0  0  0  0  0  0  0  0  0  0
   -0.3710    1.2685    0.0000 C   0  0  0  0  0  0  0  0  0  0  0  0
   -0.9248   -0.1360    0.0000 C   0  0  0  0  0  0  0  0  0  0  0  0
   -1.8398    0.2349    0.0000 N   0  0  0  0  0  0  0  0  0  0  0  0
   -1.6815   -0.5711    0.0000 C   0  0  2  0  0  0  0  0  0  0  0  0
    0.8852    1.8620    0.0000 C   0  0  2  0  0  0  0  0  0  0  0  0
    0.2917    2.4851    0.0000 C   0  0  0  0  0  0  0  0  0  0  0  0
    1.6615    1.0459    0.0000 C   0  0  0  0  0  0  0  0  0  0  0  0
   -0.4007   -0.6551    0.0000 C   0  0  0  0  0  0  0  0  0  0  0  0
   -0.4896    2.1142    0.0000 C   0  0  0  0  0  0  0  0  0  0  0  0
   -2.4479   -1.0113    0.0000 C   0  0  0  0  0  0  0  0  0  0  0  0
    1.6615    2.2032    0.0000 C   0  0  2  0  0  0  0  0  0  0  0  0
   -1.6815    1.1845    0.0000 C   0  0  2  0  0  0  0  0  0  0  0  0
   -2.4382   -0.1409    0.0000 C   0  0  0  0  0  0  0  0  0  0  0  0
    1.2907   -0.4822    0.0000 O   0  0  0  0  0  0  0  0  0  0  0  0
   -2.4382    0.7394    0.0000 C   0  0  0  0  0  0  0  0  0  0  0  0
    2.2650    1.4168    0.0000 O   0  0  0  0  0  0  0  0  0  0  0  0
   -2.7201    0.2449    0.0000 C   0  0  0  0  0  0  0  0  0  0  0  0
   -1.6915   -1.4564    0.0000 C   0  0  0  0  0  0  0  0  0  0  0  0
    2.3440    2.7669    0.0000 O   0  0  0  0  0  0  0  0  0  0  0  0
   -1.6915    2.0696    0.0000 O   0  0  0  0  0  0  0  0  0  0  0  0
   -2.4629   -1.8866    0.0000 O   0  0  0  0  0  0  0  0  0  0  0  0
    3.1600    2.4554    0.0000 C   0  0  0  0  0  0  0  0  0  0  0  0
   -2.4629    2.4995    0.0000 C   0  0  0  0  0  0  0  0  0  0  0  0
   -2.4629   -2.7669    0.0000 C   0  0  0  0  0  0  0  0  0  0  0  0
   -3.1600    1.0063    0.0000 C   0  0  0  0  0  0  0  0  0  0  0  0
  3  2  1  0  0  0  0
  6  3  1  0  0  0  0
  4  1  1  0  0  0  0
  5  4  1  0  0  0  0
  6  1  1  0  0  0  0
  7  1  1  0  0  0  0
  8  4  1  0  0  0  0
  9  7  1  0  0  0  0
 10  3  1  0  0  0  0
 11 14  1  0  0  0  0
 12  2  1  0  0  0  0
 13  7  1  0  0  0  0
 14  6  1  0  0  0  0
 15  9  1  0  0  0  0
 16 11  1  0  0  0  0
 17  1  1  0  0  0  0
 18 20  1  0  0  0  0
  2 19  1  1  0  0  0
 20 17  1  0  0  0  0
 10 21  1  6  0  0  0
 22  8  1  0  0  0  0
  9 23  1  1  0  0  0
 16 24  1  1  0  0  0
 17 25  1  6  0  0  0
 26 23  1  0  0  0  0
 27 24  1  0  0  0  0
 28 25  1  0  0  0  0
 29 26  1  0  0  0  0
 30 22  1  0  0  0  0
 13  5  1  0  0  0  0
  5  2  1  0  0  0  0
  9 18  1  0  0  0  0
 15  8  1  0  0  0  0
 10 11  1  0  0  0  0
 16 12  1  0  0  0  0
M  END
>  <IDNUMBER> (N094-0027)
N094-0027

>  <available> (N094-0027)
339

>  <H_acceptor> (N094-0027)
6

>  <H_donor> (N094-0027)
2

>  <B_rotN> (N094-0027)
7

>  <N_O> (N094-0027)
6

>  <logP> (N094-0027)
-0.32

>  <logD> (N094-0027)
0.78

>  <logSw> (N094-0027)
-3.47

>  <PSA> (N094-0027)
71.39

>  <Chiral_centers> (N094-0027)
12

>  <Name> (N094-0027)
11-ETHYL-6,16-DIMETHOXY-13-(METHOXYMETHYL)-11-AZAHEXACYCLO[7.7.2.1^(2,5).0^(1,10).0^(3,8).0^(13,17)]NONADECANE-4,8-DIOL

>  <Smile> (N094-0027)
CCN1C2C34C(OC)CCC(C4CC2C2(CC(C4C(C2C3C4)O)OC)O)(C1)COC

>  <Collection> (N094-0027)
NC

>  <InChI Key> (N094-0027)
BDCURAWBZJMFIK-HGWRFDDWSA-N

>  <PERCENTSP3> (N094-0027)
100

$$$$

  -ISIS-  -- StrEd -- 

 53 57  0  0  0  0  0  0  0  0999 V2000
    0.4191    0.9345    0.0000 C   0  0  0  0  0  0  0  0  0  0  0  0
    0.4191    1.9434    0.0000 C   0  0  0  0  0  0  0  0  0  0  0  0
   -0.4366    0.4541    0.0000 C   0  0  0  0  0  0  0  0  0  0  0  0
   -1.2969    0.9345    0.0000 C   0  0  0  0  0  0  0  0  0  0  0  0
    1.3626   -0.3450    0.0000 C   0  0  0  0  0  0  0  0  0  0  0  0
   -0.4366    2.4456    0.0000 O   0  0  0  0  0  0  0  0  0  0  0  0
   -1.2969    1.9434    0.0000 C   0  0  0  0  0  0  0  0  0  0  0  0
    3.0091   -0.3450    0.0000 C   0  0  0  0  0  0  0  0  0  0  0  0
    1.3626    0.4016    0.0000 O   0  0  0  0  0  0  0  0  0  0  0  0
    3.8606   -1.4632    0.0000 C   0  0  0  0  0  0  0  0  0  0  0  0
    0.5374   -1.4632    0.0000 O   0  0  0  0  0  0  0  0  0  0  0  0
   -0.4584   -4.2405    0.0000 C   0  0  0  0  0  0  0  0  0  0  0  0
    3.0091   -2.5460    0.0000 C   0  0  0  0  0  0  0  0  0  0  0  0
   -2.1574    0.4541    0.0000 C   0  0  0  0  0  0  0  0  0  0  0  0
    1.3626   -2.5460    0.0000 C   0  0  0  0  0  0  0  0  0  0  0  0
   -2.1269   -4.2405    0.0000 C   0  0  0  0  0  0  0  0  0  0  0  0
    1.2795    2.4456    0.0000 C   0  0  0  0  0  0  0  0  0  0  0  0
    0.4018   -3.1532    0.0000 C   0  0  0  0  0  0  0  0  0  0  0  0
   -0.4584   -2.0220    0.0000 O   0  0  0  0  0  0  0  0  0  0  0  0
   -2.1574    2.4456    0.0000 C   0  0  0  0  0  0  0  0  0  0  0  0
   -3.0178    0.9345    0.0000 C   0  0  0  0  0  0  0  0  0  0  0  0
   -2.9652   -3.1532    0.0000 C   0  0  0  0  0  0  0  0  0  0  0  0
    1.2795    3.4238    0.0000 C   0  0  0  0  0  0  0  0  0  0  0  0
    2.1617    3.9306    0.0000 C   0  0  0  0  0  0  0  0  0  0  0  0
   -0.4366   -0.5328    0.0000 O   0  0  0  0  0  0  0  0  0  0  0  0
    0.4018   -2.3670    0.0000 O   0  0  0  0  0  0  0  0  0  0  0  0
   -3.0178    1.9434    0.0000 C   0  0  0  0  0  0  0  0  0  0  0  0
    1.3626   -1.8430    0.0000 C   0  0  0  0  0  0  0  0  0  0  0  0
   -2.1269   -2.0220    0.0000 C   0  0  0  0  0  0  0  0  0  0  0  0
    3.0221    3.4238    0.0000 C   0  0  0  0  0  0  0  0  0  0  0  0
    2.1617    1.9434    0.0000 C   0  0  0  0  0  0  0  0  0  0  0  0
    3.0221    2.4456    0.0000 C   0  0  0  0  0  0  0  0  0  0  0  0
    3.0003   -1.0569    0.0000 O   0  0  0  0  0  0  0  0  0  0  0  0
   -0.4584   -4.9130    0.0000 O   0  0  0  0  0  0  0  0  0  0  0  0
    3.8606   -0.6901    0.0000 O   0  0  0  0  0  0  0  0  0  0  0  0
   -2.1574   -0.5546    0.0000 O   0  0  0  0  0  0  0  0  0  0  0  0
    3.0091   -1.7252    0.0000 O   0  0  0  0  0  0  0  0  0  0  0  0
   -2.1269   -3.5417    0.0000 O   0  0  0  0  0  0  0  0  0  0  0  0
    2.1617    4.9130    0.0000 O   0  0  0  0  0  0  0  0  0  0  0  0
   -2.9652   -3.8956    0.0000 O   0  0  0  0  0  0  0  0  0  0  0  0
    3.8781    3.9306    0.0000 O   0  0  0  0  0  0  0  0  0  0  0  0
   -3.8781    2.4456    0.0000 O   0  0  0  0  0  0  0  0  0  0  0  0
    1.3626   -3.1924    0.0000 H   0  0  0  0  0  0  0  0  0  0  0  0
    3.8606   -2.1967    0.0000 H   0  0  0  0  0  0  0  0  0  0  0  0
   -2.1269   -1.3190    0.0000 H   0  0  0  0  0  0  0  0  0  0  0  0
   -2.1269   -2.6073    0.0000 H   0  0  0  0  0  0  0  0  0  0  0  0
   -2.9652   -2.3758    0.0000 H   0  0  0  0  0  0  0  0  0  0  0  0
    3.0003    0.2750    0.0000 H   0  0  0  0  0  0  0  0  0  0  0  0
    3.0091   -3.1924    0.0000 H   0  0  0  0  0  0  0  0  0  0  0  0
   -2.1269   -4.9130    0.0000 H   0  0  0  0  0  0  0  0  0  0  0  0
   -0.4584   -3.4239    0.0000 H   0  0  0  0  0  0  0  0  0  0  0  0
    1.3626   -0.9217    0.0000 H   0  0  0  0  0  0  0  0  0  0  0  0
    0.4018   -3.8956    0.0000 H   0  0  0  0  0  0  0  0  0  0  0  0
  2  1  2  0  0  0  0
  3  1  1  0  0  0  0
  4  3  1  0  0  0  0
  5  9  1  0  0  0  0
  6  2  1  0  0  0  0
  7  4  2  0  0  0  0
  8  5  1  0  0  0  0
  9  1  1  0  0  0  0
 10  8  1  0  0  0  0
 11  5  1  0  0  0  0
 12 18  1  0  0  0  0
 13 15  1  0  0  0  0
 14  4  1  0  0  0  0
 15 11  1  0  0  0  0
 16 12  1  0  0  0  0
 17  2  1  0  0  0  0
 18 26  1  0  0  0  0
 19 18  1  0  0  0  0
 20  7  1  0  0  0  0
 21 14  2  0  0  0  0
 22 29  1  0  0  0  0
 23 17  1  0  0  0  0
 24 23  2  0  0  0  0
 25  3  2  0  0  0  0
 28 26  1  0  0  0  0
 27 21  1  0  0  0  0
 15 28  1  0  0  0  0
 29 19  1  0  0  0  0
 30 32  2  0  0  0  0
 31 17  2  0  0  0  0
 32 31  1  0  0  0  0
  8 33  1  0  0  0  0
 34 12  1  0  0  0  0
 10 35  1  0  0  0  0
 36 14  1  0  0  0  0
 13 37  1  0  0  0  0
 16 38  1  0  0  0  0
 39 24  1  0  0  0  0
 40 22  1  0  0  0  0
 41 30  1  0  0  0  0
 42 27  1  0  0  0  0
 43 15  1  0  0  0  0
 44 10  1  0  0  0  0
 45 29  1  0  0  0  0
 46 29  1  0  0  0  0
 22 47  1  0  0  0  0
 48  8  1  0  0  0  0
 49 13  1  0  0  0  0
 50 16  1  0  0  0  0
 12 51  1  0  0  0  0
  5 52  1  0  0  0  0
 53 18  1  0  0  0  0
  6  7  1  0  0  0  0
 10 13  1  0  0  0  0
 27 20  2  0  0  0  0
 30 24  1  0  0  0  0
 22 16  1  0  0  0  0
M  END
>  <IDNUMBER> (S006-0019)
S006-0019

>  <available> (S006-0019)
67

>  <H_acceptor> (S006-0019)
16

>  <H_donor> (S006-0019)
10

>  <B_rotN> (S006-0019)
16

>  <N_O> (S006-0019)
16

>  <logP> (S006-0019)
-1.82

>  <logD> (S006-0019)
-4.96

>  <logSw> (S006-0019)
-5.3

>  <PSA> (S006-0019)
265.52

>  <Chiral_centers> (S006-0019)
9

>  <Name> (S006-0019)
2-(3,4-dihydroxyphenyl)-5,7-dihydroxy-3-[(3,4,5-trihydroxy-6-{[(3,4,5-trihydroxyoxan-2-yl)oxy]methyl}oxan-2-yl)oxy]-4H-chromen-4-one

>  <Smile> (S006-0019)
Oc1cc2c(C(C(OC3OC(C(C(C3O)O)O)COC3C(O)C(C(CO3)O)O)=C(c3cc(O)c(cc3)O)O2)=O)c(O)c1

>  <Collection> (S006-0019)
DC

>  <InChI Key> (S006-0019)
YNMFDPCLPIMRFD-UHFFFAOYSA-N

>  <PERCENTSP3> (S006-0019)
42.3

$$$$

  -ISIS-  -- StrEd -- 

 22 25  0  0  0  0  0  0  0  0999 V2000
   -1.0240   -0.6212    0.0000 C   0  0  0  0  0  0  0  0  0  0  0  0
    1.5926    0.9108    0.0000 C   0  0  0  0  0  0  0  0  0  0  0  0
   -1.0240   -1.6321    0.0000 C   0  0  0  0  0  0  0  0  0  0  0  0
   -0.1659   -0.1158    0.0000 C   0  0  0  0  0  0  0  0  0  0  0  0
    1.5926   -0.1263    0.0000 C   0  0  0  0  0  0  0  0  0  0  0  0
    0.7187   -0.6212    0.0000 C   0  0  0  0  0  0  0  0  0  0  0  0
    2.5245    1.1898    0.0000 C   0  0  2  0  0  0  0  0  0  0  0  0
   -0.1659   -2.1376    0.0000 C   0  0  0  0  0  0  0  0  0  0  0  0
    0.7187    1.3899    0.0000 C   0  0  0  0  0  0  0  0  0  0  0  0
    0.7187   -1.6321    0.0000 C   0  0  0  0  0  0  0  0  0  0  0  0
   -0.1659    0.9108    0.0000 C   0  0  0  0  0  0  0  0  0  0  0  0
   -1.8980   -0.1158    0.0000 C   0  0  0  0  0  0  0  0  0  0  0  0
    2.5507   -0.4159    0.0000 C   0  0  0  0  0  0  0  0  0  0  0  0
   -1.8980   -2.1376    0.0000 C   0  0  0  0  0  0  0  0  0  0  0  0
    3.1194    0.4159    0.0000 C   0  0  0  0  0  0  0  0  0  0  0  0
    2.8141    2.1376    0.0000 O   0  0  0  0  0  0  0  0  0  0  0  0
   -2.7562   -0.6212    0.0000 C   0  0  0  0  0  0  0  0  0  0  0  0
   -2.7562   -1.6321    0.0000 C   0  0  0  0  0  0  0  0  0  0  0  0
   -1.0240    0.2528    0.0000 C   0  0  0  0  0  0  0  0  0  0  0  0
    1.5926    1.8586    0.0000 C   0  0  0  0  0  0  0  0  0  0  0  0
   -3.6144   -2.1376    0.0000 O   0  0  0  0  0  0  0  0  0  0  0  0
    3.6144    1.1898    0.0000 C   0  0  0  0  0  0  0  0  0  0  0  0
  2  9  1  0  0  0  0
  3  1  1  0  0  0  0
  4  1  1  0  0  0  0
  6  5  1  0  0  0  0
  6  4  1  0  0  0  0
  7  2  1  0  0  0  0
  8  3  2  0  0  0  0
  9 11  1  0  0  0  0
 10  6  1  0  0  0  0
 11  4  1  0  0  0  0
 12  1  1  0  0  0  0
 13  5  1  0  0  0  0
 14  3  1  0  0  0  0
 15 13  1  0  0  0  0
 16  7  1  0  0  0  0
 17 12  1  0  0  0  0
 18 17  1  0  0  0  0
  1 19  1  0  0  0  0
  2 20  1  0  0  0  0
 18 21  1  0  0  0  0
  7 22  1  6  0  0  0
 18 14  1  0  0  0  0
 10  8  1  0  0  0  0
  2  5  1  0  0  0  0
  7 15  1  0  0  0  0
M  END
>  <IDNUMBER> (N050-0004)
N050-0004

>  <available> (N050-0004)
95

>  <H_acceptor> (N050-0004)
2

>  <H_donor> (N050-0004)
2

>  <B_rotN> (N050-0004)
2

>  <N_O> (N050-0004)
2

>  <logP> (N050-0004)
3.44

>  <logD> (N050-0004)
2.75

>  <logSw> (N050-0004)
-6.03

>  <PSA> (N050-0004)
40.46

>  <Chiral_centers> (N050-0004)
7

>  <Name> (N050-0004)
1,9a,11a-trimethyl-1H,2H,3H,3aH,3bH,4H,6H,7H,8H,9H,9aH,9bH,10H,11H,11aH-cyclopenta[a]phenanthrene-1,7-diol

>  <Smile> (N050-0004)
CC1(C2(C(C3C(C4(C)CCC(CC4=CC3)O)CC2)CC1)C)O

>  <Collection> (N050-0004)
DC

>  <InChI Key> (N050-0004)
WRWBCPJQPDHXTJ-SYRRFROPSA-N

>  <PERCENTSP3> (N050-0004)
90

$$$$

  -ISIS-  -- StrEd -- 

 23 26  0  0  0  0  0  0  0  0999 V2000
    1.6243    1.1410    0.0000 C   0  0  0  0  0  0  0  0  0  0  0  0
   -1.0010   -0.3961    0.0000 C   0  0  0  0  0  0  0  0  0  0  0  0
   -0.1401    0.1109    0.0000 C   0  0  0  0  0  0  0  0  0  0  0  0
    1.6243    0.1004    0.0000 C   0  0  0  0  0  0  0  0  0  0  0  0
    0.7475   -0.3961    0.0000 C   0  0  0  0  0  0  0  0  0  0  0  0
   -1.0010   -1.4105    0.0000 C   0  0  2  0  0  0  0  0  0  0  0  0
    2.5594    1.4209    0.0000 C   0  0  2  0  0  0  0  0  0  0  0  0
    0.7475    1.6217    0.0000 C   0  0  0  0  0  0  0  0  0  0  0  0
   -0.1401    1.1410    0.0000 C   0  0  0  0  0  0  0  0  0  0  0  0
   -1.8779    0.1109    0.0000 C   0  0  0  0  0  0  0  0  0  0  0  0
    2.5858   -0.1902    0.0000 C   0  0  0  0  0  0  0  0  0  0  0  0
    0.7475   -1.4105    0.0000 C   0  0  0  0  0  0  0  0  0  0  0  0
   -1.8779   -1.9175    0.0000 C   0  0  0  0  0  0  0  0  0  0  0  0
   -0.1401   -1.9175    0.0000 C   0  0  0  0  0  0  0  0  0  0  0  0
    3.1563    0.6444    0.0000 C   0  0  0  0  0  0  0  0  0  0  0  0
   -2.7392   -1.4105    0.0000 C   0  0  0  0  0  0  0  0  0  0  0  0
   -3.6000   -1.9175    0.0000 O   0  0  0  0  0  0  0  0  0  0  0  0
   -2.7392   -0.3961    0.0000 C   0  0  0  0  0  0  0  0  0  0  0  0
    2.8500    2.3719    0.0000 O   0  0  0  0  0  0  0  0  0  0  0  0
    1.6243    2.0920    0.0000 C   0  0  0  0  0  0  0  0  0  0  0  0
   -1.0010    0.4808    0.0000 C   0  0  0  0  0  0  0  0  0  0  0  0
    3.6000    1.5478    0.0000 C   0  0  0  0  0  0  0  0  0  0  0  0
   -0.9905   -2.3719    0.0000 H   0  0  0  0  0  0  0  0  0  0  0  0
  3  2  1  0  0  0  0
  3  9  1  0  0  0  0
  4  1  1  0  0  0  0
  5  4  1  0  0  0  0
  6  2  1  0  0  0  0
  7  1  1  0  0  0  0
  8  1  1  0  0  0  0
  9  8  1  0  0  0  0
 10  2  1  0  0  0  0
 11  4  1  0  0  0  0
 12  5  1  0  0  0  0
 13  6  1  0  0  0  0
 14 12  1  0  0  0  0
 15  7  1  0  0  0  0
 16 18  1  0  0  0  0
 17 16  2  0  0  0  0
 18 10  1  0  0  0  0
 19  7  1  0  0  0  0
  1 20  1  0  0  0  0
  2 21  1  0  0  0  0
  7 22  1  6  0  0  0
  6 23  1  6  0  0  0
 11 15  1  0  0  0  0
  3  5  1  0  0  0  0
  6 14  1  0  0  0  0
 13 16  1  0  0  0  0
M  END
>  <IDNUMBER> (N050-0006)
N050-0006

>  <available> (N050-0006)
131

>  <H_acceptor> (N050-0006)
2

>  <H_donor> (N050-0006)
1

>  <B_rotN> (N050-0006)
1

>  <N_O> (N050-0006)
2

>  <logP> (N050-0006)
3.37

>  <logD> (N050-0006)
4.49

>  <logSw> (N050-0006)
-5.46

>  <PSA> (N050-0006)
37.3

>  <Chiral_centers> (N050-0006)
7

>  <Name> (N050-0006)
1-hydroxy-1,9a,11a-trimethyl-hexadecahydro-1H-cyclopenta[a]phenanthren-7-one

>  <Smile> (N050-0006)
CC1(C2(C)CCC3C4(C)C(CCC3C2CC1)CC(CC4)=O)O

>  <Collection> (N050-0006)
DC

>  <InChI Key> (N050-0006)
WYZDXEKUWRCKOB-JTRACFKJSA-N

>  <PERCENTSP3> (N050-0006)
95

$$$$

  -ISIS-  -- StrEd -- 

 25 28  0  0  0  0  0  0  0  0999 V2000
    1.3266    0.5395    0.0000 C   0  0  0  0  0  0  0  0  0  0  0  0
    1.3266   -0.4873    0.0000 C   0  0  0  0  0  0  0  0  0  0  0  0
    2.2492    0.8157    0.0000 C   0  0  2  0  0  0  0  0  0  0  0  0
   -1.2639   -0.9773    0.0000 C   0  0  0  0  0  0  0  0  0  0  0  0
   -1.2639   -1.9782    0.0000 C   0  0  0  0  0  0  0  0  0  0  0  0
   -0.4145   -0.4769    0.0000 C   0  0  0  0  0  0  0  0  0  0  0  0
    0.4614   -0.9773    0.0000 C   0  0  0  0  0  0  0  0  0  0  0  0
    2.8382    0.0495    0.0000 C   0  0  1  0  0  0  0  0  0  0  0  0
    2.2753   -0.7741    0.0000 C   0  0  0  0  0  0  0  0  0  0  0  0
    0.4614    1.0139    0.0000 C   0  0  0  0  0  0  0  0  0  0  0  0
   -0.4145   -2.4787    0.0000 C   0  0  0  0  0  0  0  0  0  0  0  0
    0.4614   -1.9782    0.0000 C   0  0  0  0  0  0  0  0  0  0  0  0
   -0.4145    0.5395    0.0000 C   0  0  0  0  0  0  0  0  0  0  0  0
   -2.1293   -0.4769    0.0000 C   0  0  0  0  0  0  0  0  0  0  0  0
    2.5360    1.7540    0.0000 C   0  0  0  0  0  0  0  0  0  0  0  0
   -2.1293   -2.4787    0.0000 C   0  0  0  0  0  0  0  0  0  0  0  0
    3.5004    1.9521    0.0000 O   0  0  0  0  0  0  0  0  0  0  0  0
    3.5004    1.3266    0.0000 O   0  0  0  0  0  0  0  0  0  0  0  0
    1.3266    1.4777    0.0000 C   0  0  0  0  0  0  0  0  0  0  0  0
   -2.9791   -0.9773    0.0000 C   0  0  0  0  0  0  0  0  0  0  0  0
   -2.9791   -1.9782    0.0000 C   0  0  0  0  0  0  0  0  0  0  0  0
   -1.2639   -0.1120    0.0000 C   0  0  0  0  0  0  0  0  0  0  0  0
    3.8287    0.1016    0.0000 C   0  0  0  0  0  0  0  0  0  0  0  0
   -3.8287   -2.4787    0.0000 O   0  0  0  0  0  0  0  0  0  0  0  0
    1.8479    2.4787    0.0000 C   0  0  0  0  0  0  0  0  0  0  0  0
  2  1  1  0  0  0  0
  3  1  1  0  0  0  0
  6  4  1  0  0  0  0
  5  4  1  0  0  0  0
  6 13  1  0  0  0  0
  7  2  1  0  0  0  0
  8  3  1  0  0  0  0
  9  2  1  0  0  0  0
 10  1  1  0  0  0  0
 11 12  1  0  0  0  0
 12  7  1  0  0  0  0
 13 10  1  0  0  0  0
 14  4  1  0  0  0  0
 15  3  1  0  0  0  0
 16  5  1  0  0  0  0
 17 15  2  0  0  0  0
  3 18  1  6  0  0  0
  1 19  1  0  0  0  0
 20 14  1  0  0  0  0
 21 20  1  0  0  0  0
  4 22  1  0  0  0  0
  8 23  1  6  0  0  0
 21 24  1  0  0  0  0
 25 15  1  0  0  0  0
  9  8  1  0  0  0  0
  6  7  1  0  0  0  0
 11  5  2  0  0  0  0
 16 21  1  0  0  0  0
M  END
>  <IDNUMBER> (N050-0021)
N050-0021

>  <available> (N050-0021)
122

>  <H_acceptor> (N050-0021)
3

>  <H_donor> (N050-0021)
2

>  <B_rotN> (N050-0021)
3

>  <N_O> (N050-0021)
3

>  <logP> (N050-0021)
3.07

>  <logD> (N050-0021)
3.79

>  <logSw> (N050-0021)
-4.39

>  <PSA> (N050-0021)
57.53

>  <Chiral_centers> (N050-0021)
8

>  <Name> (N050-0021)
1-{1,7-dihydroxy-2,9a,11a-trimethyl-1H,2H,3H,3aH,3bH,4H,6H,7H,8H,9H,9aH,9bH,10H,11H,11aH-cyclopenta[a]phenanthren-1-yl}ethan-1-one

>  <Smile> (N050-0021)
CC(C1(C2(C)CCC3C4(C)C(=CCC3C2CC1C)CC(CC4)O)O)=O

>  <Collection> (N050-0021)
DC

>  <InChI Key> (N050-0021)
MDCCMZGGNCMFPQ-KTVZEXMZSA-N

>  <PERCENTSP3> (N050-0021)
86.4

$$$$

  -ISIS-  -- StrEd -- 

 37 42  0  0  0  0  0  0  0  0999 V2000
    1.2309   -1.4789    0.0000 C   0  0  2  0  0  0  0  0  0  0  0  0
    1.5329    2.0373    0.0000 N   0  0  0  0  0  0  0  0  0  0  0  0
   -1.3107   -2.1910    0.0000 C   0  0  2  0  0  0  0  0  0  0  0  0
   -0.4388   -1.7238    0.0000 C   0  0  2  0  0  0  0  0  0  0  0  0
    0.8091   -0.5613    0.0000 C   0  0  2  0  0  0  0  0  0  0  0  0
    0.4673   -2.1741    0.0000 C   0  0  0  0  0  0  0  0  0  0  0  0
    1.4076    0.2878    0.0000 C   0  0  1  0  0  0  0  0  0  0  0  0
    2.4505    0.2878    0.0000 C   0  0  1  0  0  0  0  0  0  0  0  0
   -1.3107   -3.2170    0.0000 C   0  0  1  0  0  0  0  0  0  0  0  0
    2.5472    2.0487    0.0000 C   0  0  2  0  0  0  0  0  0  0  0  0
    0.9573    1.1881    0.0000 C   0  0  0  0  0  0  0  0  0  0  0  0
   -0.2052   -0.6411    0.0000 C   0  0  0  0  0  0  0  0  0  0  0  0
    2.9575    1.0401    0.0000 C   0  0  2  0  0  0  0  0  0  0  0  0
    0.4673   -3.1714    0.0000 C   0  0  0  0  0  0  0  0  0  0  0  0
   -0.4218   -3.6957    0.0000 C   0  0  1  0  0  0  0  0  0  0  0  0
    2.3821   -1.4619    0.0000 C   0  0  0  0  0  0  0  0  0  0  0  0
    2.8323   -0.7267    0.0000 C   0  0  0  0  0  0  0  0  0  0  0  0
   -2.1997   -1.6955    0.0000 C   0  0  0  0  0  0  0  0  0  0  0  0
    1.0940    2.9547    0.0000 C   0  0  0  0  0  0  0  0  0  0  0  0
    3.0944    2.9377    0.0000 C   0  0  0  0  0  0  0  0  0  0  0  0
   -2.1712   -3.7185    0.0000 C   0  0  0  0  0  0  0  0  0  0  0  0
    1.5615   -2.3507    0.0000 O   0  0  0  0  0  0  0  0  0  0  0  0
   -1.3107   -1.3421    0.0000 C   0  0  0  0  0  0  0  0  0  0  0  0
   -0.4218   -4.7043    0.0000 O   0  0  0  0  0  0  0  0  0  0  0  0
   -3.0887   -2.1910    0.0000 C   0  0  0  0  0  0  0  0  0  0  0  0
    2.6556    3.7867    0.0000 C   0  0  0  0  0  0  0  0  0  0  0  0
   -3.0887   -3.2170    0.0000 C   0  0  1  0  0  0  0  0  0  0  0  0
    1.6812    3.7867    0.0000 C   0  0  1  0  0  0  0  0  0  0  0  0
    3.9379    1.0401    0.0000 C   0  0  0  0  0  0  0  0  0  0  0  0
   -3.9379   -3.7070    0.0000 O   0  0  0  0  0  0  0  0  0  0  0  0
    1.2708    4.7043    0.0000 C   0  0  0  0  0  0  0  0  0  0  0  0
   -0.4218   -2.5843    0.0000 H   0  0  0  0  0  0  0  0  0  0  0  0
   -1.3107   -4.2143    0.0000 H   0  0  0  0  0  0  0  0  0  0  0  0
    0.3419    0.3162    0.0000 H   0  0  0  0  0  0  0  0  0  0  0  0
    1.8351   -0.5329    0.0000 H   0  0  0  0  0  0  0  0  0  0  0  0
    2.0231    1.1198    0.0000 H   0  0  0  0  0  0  0  0  0  0  0  0
    2.1769    2.9377    0.0000 H   0  0  0  0  0  0  0  0  0  0  0  0
  2 11  1  0  0  0  0
  3  4  1  0  0  0  0
  6  4  1  0  0  0  0
  5  1  1  0  0  0  0
  6  1  1  0  0  0  0
  7  5  1  0  0  0  0
  8 17  1  0  0  0  0
  9 15  1  0  0  0  0
 10 13  1  0  0  0  0
 11  7  1  0  0  0  0
 12  5  1  0  0  0  0
 13  8  1  0  0  0  0
 14  6  1  0  0  0  0
 15 14  1  0  0  0  0
 16  1  1  0  0  0  0
 17 16  1  0  0  0  0
 18  3  1  0  0  0  0
 19  2  1  0  0  0  0
 20 10  1  0  0  0  0
 21  9  1  0  0  0  0
  1 22  1  6  0  0  0
  3 23  1  1  0  0  0
 15 24  1  1  0  0  0
 25 18  1  0  0  0  0
 26 20  1  0  0  0  0
 27 21  1  0  0  0  0
 28 19  1  0  0  0  0
 13 29  1  6  0  0  0
 27 30  1  6  0  0  0
 28 31  1  6  0  0  0
  4 32  1  6  0  0  0
  9 33  1  6  0  0  0
  5 34  1  6  0  0  0
  7 35  1  1  0  0  0
  8 36  1  6  0  0  0
 10 37  1  6  0  0  0
 12  4  1  0  0  0  0
  8  7  1  0  0  0  0
  9  3  1  0  0  0  0
  2 10  1  0  0  0  0
 27 25  1  0  0  0  0
 28 26  1  0  0  0  0
M  END
>  <IDNUMBER> (N037-0036)
N037-0036

>  <available> (N037-0036)
107

>  <H_acceptor> (N037-0036)
4

>  <H_donor> (N037-0036)
3

>  <B_rotN> (N037-0036)
3

>  <N_O> (N037-0036)
4

>  <logP> (N037-0036)
3.33

>  <logD> (N037-0036)
2.69

>  <logSw> (N037-0036)
-3.94

>  <PSA> (N037-0036)
63.93

>  <Chiral_centers> (N037-0036)
13

>  <Name> (N037-0036)
(3R,4aS,5R,8aS,9R,9aS,12R,15aR,15bS,16aS,16bR)-9,12,16b-trimethyldocosahydrobenzo[4,5]indeno[1,2-h]pyrido[1,2-b]isoquinoline-3,5,6b(7H)-triol

>  <Smile> (N037-0036)
CC1CN2C(C(C3C(C4C(CC3)(C3C(C5(CCC(CC5C(C3)O)O)C)C4)O)C2)C)CC1

>  <Collection> (N037-0036)
DC

>  <InChI Key> (N037-0036)
NQGYOUYEGZOZBN-ABEJBQEGSA-N

>  <PERCENTSP3> (N037-0036)
100

$$$$

  -ISIS-  -- StrEd -- 

 77 85  0  0  0  0  0  0  0  0999 V2000
    3.6754    3.3848    0.0000 C   0  0  0  0  0  0  0  0  0  0  0  0
   -2.0919   -1.3858    0.0000 C   0  0  0  0  0  0  0  0  0  0  0  0
    6.0165    4.7094    0.0000 C   0  0  2  0  0  0  0  0  0  0  0  0
    3.6754    2.4158    0.0000 C   0  0  0  0  0  0  0  0  0  0  0  0
   -2.0577   -4.9076    0.0000 C   0  0  0  0  0  0  0  0  0  0  0  0
   -6.2621   -3.8087    0.0000 C   0  0  0  0  0  0  0  0  0  0  0  0
   -1.3684   -0.4643    0.0000 C   0  0  0  0  0  0  0  0  0  0  0  0
   -4.1875   -0.4643    0.0000 C   0  0  0  0  0  0  0  0  0  0  0  0
   -6.9858   -4.7233    0.0000 C   0  0  0  0  0  0  0  0  0  0  0  0
   -2.7812   -5.8222    0.0000 C   0  0  0  0  0  0  0  0  0  0  0  0
   -3.4845   -1.3858    0.0000 C   0  0  0  0  0  0  0  0  0  0  0  0
    1.1707    1.9381    0.0000 C   0  0  0  0  0  0  0  0  0  0  0  0
    4.5083    3.8560    0.0000 C   0  0  0  0  0  0  0  0  0  0  0  0
   -8.3710   -4.7233    0.0000 C   0  0  0  0  0  0  0  0  0  0  0  0
   -4.1733   -5.8222    0.0000 C   0  0  0  0  0  0  0  0  0  0  0  0
    6.0641    3.9383    0.0000 O   0  0  0  0  0  0  0  0  0  0  0  0
    5.3477    3.3848    0.0000 C   0  0  0  0  0  0  0  0  0  0  0  0
   -2.0919   -1.9384    0.0000 O   0  0  0  0  0  0  0  0  0  0  0  0
    2.0033    2.4158    0.0000 C   0  0  0  0  0  0  0  0  0  0  0  0
    2.8428    1.9381    0.0000 C   0  0  0  0  0  0  0  0  0  0  0  0
   -2.0919    0.4845    0.0000 O   0  0  0  0  0  0  0  0  0  0  0  0
   -4.1875   -1.0921    0.0000 O   0  0  0  0  0  0  0  0  0  0  0  0
   -2.7812   -3.9588    0.0000 O   0  0  0  0  0  0  0  0  0  0  0  0
   -6.9858   -2.8601    0.0000 O   0  0  0  0  0  0  0  0  0  0  0  0
   -4.8766   -4.9076    0.0000 C   0  0  0  0  0  0  0  0  0  0  0  0
   -9.0809   -3.8087    0.0000 C   0  0  0  0  0  0  0  0  0  0  0  0
   -3.4845    0.4845    0.0000 C   0  0  0  0  0  0  0  0  0  0  0  0
    5.3477    2.4158    0.0000 C   0  0  0  0  0  0  0  0  0  0  0  0
    4.4806    4.5934    0.0000 C   0  0  2  0  0  0  0  0  0  0  0  0
    6.9175    5.7878    0.0000 O   0  0  0  0  0  0  0  0  0  0  0  0
    1.1707    0.9896    0.0000 C   0  0  2  0  0  0  0  0  0  0  0  0
   -4.1733   -3.9588    0.0000 C   0  0  0  0  0  0  0  0  0  0  0  0
   -8.3710   -2.8601    0.0000 C   0  0  0  0  0  0  0  0  0  0  0  0
    2.8428    3.8560    0.0000 C   0  0  0  0  0  0  0  0  0  0  0  0
    2.0033    3.3848    0.0000 C   0  0  0  0  0  0  0  0  0  0  0  0
   -1.4368    0.4982    0.0000 O   0  0  0  0  0  0  0  0  0  0  0  0
    0.3176    2.4158    0.0000 C   0  0  0  0  0  0  0  0  0  0  0  0
    2.8428    0.9896    0.0000 C   0  0  0  0  0  0  0  0  0  0  0  0
    7.0337    5.0845    0.0000 C   0  0  0  0  0  0  0  0  0  0  0  0
    0.3176    0.5187    0.0000 C   0  0  0  0  0  0  0  0  0  0  0  0
    2.0033    0.5187    0.0000 C   0  0  0  0  0  0  0  0  0  0  0  0
   -0.5153    0.9896    0.0000 C   0  0  0  0  0  0  0  0  0  0  0  0
   -6.9858   -5.2828    0.0000 O   0  0  0  0  0  0  0  0  0  0  0  0
   -2.7812   -6.3817    0.0000 O   0  0  0  0  0  0  0  0  0  0  0  0
   -3.4503   -0.6623    0.0000 O   0  0  0  0  0  0  0  0  0  0  0  0
   -8.3916   -5.3309    0.0000 O   0  0  0  0  0  0  0  0  0  0  0  0
   -4.1733   -6.3817    0.0000 O   0  0  0  0  0  0  0  0  0  0  0  0
   -9.1151   -3.0239    0.0000 O   0  0  0  0  0  0  0  0  0  0  0  0
   -4.8766   -4.2046    0.0000 O   0  0  0  0  0  0  0  0  0  0  0  0
    3.6617    4.3955    0.0000 C   0  0  0  0  0  0  0  0  0  0  0  0
    8.0845    5.2486    0.0000 C   0  0  0  0  0  0  0  0  0  0  0  0
   -0.5153    1.9381    0.0000 C   0  0  0  0  0  0  0  0  0  0  0  0
    1.1707    2.9553    0.0000 C   0  0  0  0  0  0  0  0  0  0  0  0
    8.1662    4.6752    0.0000 C   0  0  0  0  0  0  0  0  0  0  0  0
   -3.4845    1.0713    0.0000 C   0  0  0  0  0  0  0  0  0  0  0  0
    9.1151    5.4121    0.0000 C   0  0  0  0  0  0  0  0  0  0  0  0
    3.5253    5.2007    0.0000 C   0  0  0  0  0  0  0  0  0  0  0  0
   -2.5357    1.5493    0.0000 O   0  0  0  0  0  0  0  0  0  0  0  0
   -4.1733   -4.5322    0.0000 C   0  0  0  0  0  0  0  0  0  0  0  0
   -8.4257   -3.4948    0.0000 C   0  0  0  0  0  0  0  0  0  0  0  0
    9.0809    6.3817    0.0000 C   0  0  0  0  0  0  0  0  0  0  0  0
   -6.2621   -4.4296    0.0000 H   0  0  0  0  0  0  0  0  0  0  0  0
   -9.0809   -4.4980    0.0000 H   0  0  0  0  0  0  0  0  0  0  0  0
   -3.4845   -0.0071    0.0000 H   0  0  0  0  0  0  0  0  0  0  0  0
   -4.1875    0.1908    0.0000 H   0  0  0  0  0  0  0  0  0  0  0  0
   -8.4599   -4.2046    0.0000 H   0  0  0  0  0  0  0  0  0  0  0  0
   -4.1733   -3.3854    0.0000 H   0  0  0  0  0  0  0  0  0  0  0  0
   -4.8766   -5.5764    0.0000 H   0  0  0  0  0  0  0  0  0  0  0  0
   -3.4845   -1.9384    0.0000 H   0  0  0  0  0  0  0  0  0  0  0  0
   -2.0919   -0.6962    0.0000 H   0  0  0  0  0  0  0  0  0  0  0  0
   -4.1733   -5.2355    0.0000 H   0  0  0  0  0  0  0  0  0  0  0  0
   -2.7812   -5.1329    0.0000 H   0  0  0  0  0  0  0  0  0  0  0  0
   -6.9858   -4.0405    0.0000 H   0  0  0  0  0  0  0  0  0  0  0  0
   -2.0577   -5.5286    0.0000 H   0  0  0  0  0  0  0  0  0  0  0  0
   -1.3684   -1.0921    0.0000 H   0  0  0  0  0  0  0  0  0  0  0  0
   -8.3916   -2.3209    0.0000 H   0  0  0  0  0  0  0  0  0  0  0  0
    1.2046   -0.1706    0.0000 H   0  0  0  0  0  0  0  0  0  0  0  0
  2  7  1  0  0  0  0
  3 29  1  0  0  0  0
  4  1  1  0  0  0  0
  5 18  1  0  0  0  0
  6 22  1  0  0  0  0
  7 36  1  0  0  0  0
  8 27  1  0  0  0  0
  9  6  1  0  0  0  0
 10  5  1  0  0  0  0
 11  2  1  0  0  0  0
 19 12  1  0  0  0  0
 13  1  1  0  0  0  0
 14  9  1  0  0  0  0
 15 10  1  0  0  0  0
 17 16  1  0  0  0  0
 17 13  1  0  0  0  0
 18  2  1  0  0  0  0
 19 35  1  0  0  0  0
 20  4  1  0  0  0  0
 21  7  1  0  0  0  0
 22  8  1  0  0  0  0
 23  5  1  0  0  0  0
 24  6  1  0  0  0  0
 25 32  1  0  0  0  0
 26 33  1  0  0  0  0
 27 21  1  0  0  0  0
 28  4  1  0  0  0  0
 29 13  1  0  0  0  0
  3 30  1  6  0  0  0
 31 12  1  0  0  0  0
 32 23  1  0  0  0  0
 33 24  1  0  0  0  0
 34  1  1  0  0  0  0
 35 34  1  0  0  0  0
 42 36  1  0  0  0  0
 37 12  1  0  0  0  0
 38 20  1  0  0  0  0
 39  3  1  0  0  0  0
 40 31  1  0  0  0  0
 41 38  1  0  0  0  0
 42 52  1  0  0  0  0
 43  9  1  0  0  0  0
 44 10  1  0  0  0  0
 11 45  1  0  0  0  0
 46 14  1  0  0  0  0
 47 15  1  0  0  0  0
 48 26  1  0  0  0  0
 25 49  1  0  0  0  0
  1 50  1  0  0  0  0
 51 30  1  0  0  0  0
 52 37  1  0  0  0  0
 12 53  1  0  0  0  0
 54 39  1  0  0  0  0
 55 27  1  0  0  0  0
 56 54  1  0  0  0  0
 29 57  1  6  0  0  0
 58 55  1  0  0  0  0
 32 59  1  0  0  0  0
 33 60  1  0  0  0  0
 56 61  1  0  0  0  0
  6 62  1  0  0  0  0
 26 63  1  0  0  0  0
 27 64  1  0  0  0  0
  8 65  1  0  0  0  0
 14 66  1  0  0  0  0
 67 32  1  0  0  0  0
 68 25  1  0  0  0  0
 69 11  1  0  0  0  0
  2 70  1  0  0  0  0
 15 71  1  0  0  0  0
 10 72  1  0  0  0  0
  9 73  1  0  0  0  0
 74  5  1  0  0  0  0
 75  7  1  0  0  0  0
 76 33  1  0  0  0  0
 31 77  1  6  0  0  0
 17 28  1  0  0  0  0
 20 19  1  0  0  0  0
  3 16  1  0  0  0  0
 41 31  1  0  0  0  0
 56 51  1  0  0  0  0
 42 40  1  0  0  0  0
 11  8  1  0  0  0  0
 15 25  1  0  0  0  0
 26 14  1  0  0  0  0
M  END
>  <IDNUMBER> (N006-0007)
N006-0007

>  <available> (N006-0007)
53

>  <H_acceptor> (N006-0007)
16

>  <H_donor> (N006-0007)
8

>  <B_rotN> (N006-0007)
15

>  <N_O> (N006-0007)
16

>  <logP> (N006-0007)
1.42

>  <logD> (N006-0007)
0.3

>  <logSw> (N006-0007)
-3.08

>  <PSA> (N006-0007)
235.68

>  <Chiral_centers> (N006-0007)
27

>  <Name> (N006-0007)
2-{[4-HYDROXY-6-(HYDROXYMETHYL)-2-{5,7',9',13'-TETRAMETHYL-5'-OXASPIRO[OXANE-2,6'-PENTACYCLO[10.8.0.0^(2,9).0^(4,8).0^(13,18)]ICOSANE]OXY}-5-[(3,4,5-TRIHYDROXY-6-METHYLOXAN-2-YL)OXY]OXAN-3-YL]OXY}-6-M
ETHYLOXANE-3,4,5-TRIOL

>  <Smile> (N006-0007)
CC1COC2(OC3C(C4(C)CCC5C6(C)C(CCC5C4C3)CC(OC3C(OC4OC(C(C(C4O)O)O)C)C(C(C(O3)CO)OC3OC(C(C(C3O)O)O)C)O)CC6)C2C)CC1

>  <Collection> (N006-0007)
DC

>  <InChI Key> (N006-0007)
KFYOFJUUTSALEH-WEFCCHQPSA-N

>  <PERCENTSP3> (N006-0007)
100

$$$$

  -ISIS-  -- StrEd -- 

 31 36  0  0  0  0  0  0  0  0999 V2000
   -0.6717    0.8051    0.0000 C   0  0  0  0  0  0  0  0  0  0  0  0
   -0.6717   -0.1180    0.0000 C   0  0  0  0  0  0  0  0  0  0  0  0
    1.8764    1.6664    0.0000 C   0  0  2  0  0  0  0  0  0  0  0  0
   -3.0714   -0.6000    0.0000 C   0  0  0  0  0  0  0  0  0  0  0  0
   -1.4562   -0.6000    0.0000 C   0  0  0  0  0  0  0  0  0  0  0  0
    0.2152    1.0767    0.0000 C   0  0  0  0  0  0  0  0  0  0  0  0
   -2.2563   -0.1180    0.0000 C   0  0  0  0  0  0  0  0  0  0  0  0
    1.9023    0.6051    0.0000 O   0  0  0  0  0  0  0  0  0  0  0  0
    0.7333    0.3384    0.0000 C   0  0  0  0  0  0  0  0  0  0  0  0
   -3.0714   -1.5075    0.0000 C   0  0  0  0  0  0  0  0  0  0  0  0
    0.2152   -0.3742    0.0000 C   0  0  0  0  0  0  0  0  0  0  0  0
    0.8562    2.0715    0.0000 C   0  0  2  0  0  0  0  0  0  0  0  0
   -1.4562   -1.5075    0.0000 C   0  0  0  0  0  0  0  0  0  0  0  0
    2.5792    2.5535    0.0000 O   0  0  0  0  0  0  0  0  0  0  0  0
   -2.2563   -1.9792    0.0000 C   0  0  0  0  0  0  0  0  0  0  0  0
   -1.4562    1.2717    0.0000 C   0  0  0  0  0  0  0  0  0  0  0  0
   -2.2563    0.8051    0.0000 C   0  0  0  0  0  0  0  0  0  0  0  0
   -3.9073   -0.1180    0.0000 C   0  0  0  0  0  0  0  0  0  0  0  0
    2.7124    2.0612    0.0000 C   0  0  0  0  0  0  0  0  0  0  0  0
   -3.9073   -1.9792    0.0000 C   0  0  0  0  0  0  0  0  0  0  0  0
   -0.6462    1.8868    0.0000 C   0  0  0  0  0  0  0  0  0  0  0  0
    3.7225    2.1332    0.0000 C   0  0  0  0  0  0  0  0  0  0  0  0
   -3.0970    0.5333    0.0000 C   0  0  0  0  0  0  0  0  0  0  0  0
   -2.2357   -3.1688    0.0000 O   0  0  0  0  0  0  0  0  0  0  0  0
   -4.6456   -0.6000    0.0000 C   0  0  0  0  0  0  0  0  0  0  0  0
   -4.6456   -1.5075    0.0000 C   0  0  0  0  0  0  0  0  0  0  0  0
    3.8714    1.6512    0.0000 C   0  0  0  0  0  0  0  0  0  0  0  0
    4.5840    2.5535    0.0000 C   0  0  0  0  0  0  0  0  0  0  0  0
   -5.4557   -1.9999    0.0000 O   0  0  0  0  0  0  0  0  0  0  0  0
    0.5486    3.1688    0.0000 C   0  0  0  0  0  0  0  0  0  0  0  0
    5.4557    2.1588    0.0000 C   0  0  0  0  0  0  0  0  0  0  0  0
  2  1  1  0  0  0  0
  3 12  1  0  0  0  0
  7  4  1  0  0  0  0
  5  2  1  0  0  0  0
  6  1  1  0  0  0  0
  7 17  1  0  0  0  0
  9  8  1  0  0  0  0
  9  6  1  0  0  0  0
 10  4  1  0  0  0  0
 11  2  1  0  0  0  0
 12  6  1  0  0  0  0
 13  5  1  0  0  0  0
  3 14  1  6  0  0  0
 15 13  1  0  0  0  0
 16  1  1  0  0  0  0
 17 16  1  0  0  0  0
 18  4  1  0  0  0  0
 19  3  1  0  0  0  0
 20 10  1  0  0  0  0
  1 21  1  0  0  0  0
 22 14  1  0  0  0  0
  4 23  1  0  0  0  0
 15 24  1  0  0  0  0
 25 18  1  0  0  0  0
 26 25  1  0  0  0  0
 27 19  1  0  0  0  0
 28 27  1  0  0  0  0
 26 29  1  0  0  0  0
 12 30  1  6  0  0  0
 28 31  1  0  0  0  0
  9 11  1  0  0  0  0
  5  7  1  0  0  0  0
  3  8  1  0  0  0  0
 15 10  1  0  0  0  0
 28 22  1  0  0  0  0
 26 20  1  0  0  0  0
M  END
>  <IDNUMBER> (N039-0032)
N039-0032

>  <available> (N039-0032)
286

>  <H_acceptor> (N039-0032)
4

>  <H_donor> (N039-0032)
2

>  <B_rotN> (N039-0032)
2

>  <N_O> (N039-0032)
4

>  <logP> (N039-0032)
3.71

>  <logD> (N039-0032)
4.3

>  <logSw> (N039-0032)
-5.18

>  <PSA> (N039-0032)
58.92

>  <Chiral_centers> (N039-0032)
13

>  <Name> (N039-0032)
5,7',9',13'-TETRAMETHYL-5'-OXASPIRO[OXANE-2,6'-PENTACYCLO[10.8.0.0^(2,9).0^(4,8).0^(13,18)]ICOSANE]-16',19'-DIOL

>  <Smile> (N039-0032)
CC1COC2(OC3C(C4(C)CCC5C6(C)C(C(CC5C4C3)O)CC(CC6)O)C2C)CC1

>  <Collection> (N039-0032)
DC

>  <InChI Key> (N039-0032)
PZNPHSFXILSZTM-UPRYLANUSA-N

>  <PERCENTSP3> (N039-0032)
100

$$$$

  -ISIS-  -- StrEd -- 

 76 82  0  0  0  0  0  0  0  0999 V2000
    2.7984    1.6305    0.0000 C   0  0  0  0  0  0  0  0  0  0  0  0
    2.0502    0.3193    0.0000 C   0  0  1  0  0  0  0  0  0  0  0  0
    2.7984    0.7395    0.0000 C   0  0  2  0  0  0  0  0  0  0  0  0
    0.5376    0.3193    0.0000 C   0  0  2  0  0  0  0  0  0  0  0  0
   -2.5463   -3.0672    0.0000 C   0  0  0  0  0  0  0  0  0  0  0  0
   -4.3195   -5.0841    0.0000 C   0  0  0  0  0  0  0  0  0  0  0  0
   -3.7396   -1.4790    0.0000 C   0  0  0  0  0  0  0  0  0  0  0  0
    1.3025    0.7395    0.0000 C   0  0  0  0  0  0  0  0  0  0  0  0
   -2.5294   -5.9161    0.0000 C   0  0  0  0  0  0  0  0  0  0  0  0
   -1.8990   -2.3023    0.0000 C   0  0  0  0  0  0  0  0  0  0  0  0
   -3.1515   -5.0841    0.0000 O   0  0  0  0  0  0  0  0  0  0  0  0
   -2.5463   -1.4790    0.0000 O   0  0  0  0  0  0  0  0  0  0  0  0
    2.0502    2.0925    0.0000 C   0  0  0  0  0  0  0  0  0  0  0  0
   -3.1515   -6.7394    0.0000 C   0  0  0  0  0  0  0  0  0  0  0  0
    1.3025    1.6305    0.0000 C   0  0  0  0  0  0  0  0  0  0  0  0
   -3.7396   -3.0672    0.0000 C   0  0  0  0  0  0  0  0  0  0  0  0
   -4.3866   -2.3023    0.0000 C   0  0  0  0  0  0  0  0  0  0  0  0
   -5.0085   -5.9161    0.0000 C   0  0  0  0  0  0  0  0  0  0  0  0
    0.5376   -0.6470    0.0000 C   0  0  0  0  0  0  0  0  0  0  0  0
    3.7647    2.2941    0.0000 C   0  0  0  0  0  0  0  0  0  0  0  0
   -4.3195   -6.7394    0.0000 C   0  0  0  0  0  0  0  0  0  0  0  0
   -2.5294   -4.4371    0.0000 O   0  0  0  0  0  0  0  0  0  0  0  0
   -0.2691   -1.1344    0.0000 C   0  0  1  0  0  0  0  0  0  0  0  0
    4.7143    3.9077    0.0000 C   0  0  1  0  0  0  0  0  0  0  0  0
   -4.3195   -4.5632    0.0000 C   0  0  0  0  0  0  0  0  0  0  0  0
   -3.7396   -0.9747    0.0000 C   0  0  0  0  0  0  0  0  0  0  0  0
    3.7647    3.3868    0.0000 C   0  0  0  0  0  0  0  0  0  0  0  0
    4.7143    1.7478    0.0000 C   0  0  1  0  0  0  0  0  0  0  0  0
   -1.8990   -1.1344    0.0000 O   0  0  0  0  0  0  0  0  0  0  0  0
   -1.0337   -0.6470    0.0000 C   0  0  0  0  0  0  0  0  0  0  0  0
    5.6219    4.5378    0.0000 C   0  0  0  0  0  0  0  0  0  0  0  0
    2.0502   -0.6470    0.0000 C   0  0  0  0  0  0  0  0  0  0  0  0
   -0.2691    0.7395    0.0000 C   0  0  0  0  0  0  0  0  0  0  0  0
    3.7647    0.1007    0.0000 C   0  0  0  0  0  0  0  0  0  0  0  0
    1.3025   -1.1344    0.0000 C   0  0  0  0  0  0  0  0  0  0  0  0
   -4.2436   -0.7062    0.0000 N   0  0  0  0  0  0  0  0  0  0  0  0
   -5.1679   -4.0168    0.0000 N   0  0  0  0  0  0  0  0  0  0  0  0
    6.6889    3.9077    0.0000 N   0  0  0  0  0  0  0  0  0  0  0  0
    7.5379    5.4454    0.0000 C   0  0  0  0  0  0  0  0  0  0  0  0
   -5.0926    0.7649    0.0000 C   0  0  0  0  0  0  0  0  0  0  0  0
   -6.5214   -4.8824    0.0000 C   0  0  0  0  0  0  0  0  0  0  0  0
    0.3528    2.1765    0.0000 O   0  0  0  0  0  0  0  0  0  0  0  0
    4.7143    0.6388    0.0000 C   0  0  0  0  0  0  0  0  0  0  0  0
   -1.0337    0.3193    0.0000 C   0  0  0  0  0  0  0  0  0  0  0  0
    5.6640    3.3868    0.0000 C   0  0  0  0  0  0  0  0  0  0  0  0
    5.6640    2.2941    0.0000 C   0  0  0  0  0  0  0  0  0  0  0  0
   -3.1346   -0.6050    0.0000 O   0  0  0  0  0  0  0  0  0  0  0  0
   -3.6976   -3.9748    0.0000 O   0  0  0  0  0  0  0  0  0  0  0  0
    5.6219    5.7060    0.0000 O   0  0  0  0  0  0  0  0  0  0  0  0
   -5.9748    0.3023    0.0000 O   0  0  0  0  0  0  0  0  0  0  0  0
    6.6305    5.9246    0.0000 O   0  0  0  0  0  0  0  0  0  0  0  0
   -6.0337   -5.7483    0.0000 O   0  0  0  0  0  0  0  0  0  0  0  0
   -3.1515   -7.5630    0.0000 O   0  0  0  0  0  0  0  0  0  0  0  0
   -5.0085   -6.9580    0.0000 O   0  0  0  0  0  0  0  0  0  0  0  0
   -4.3615   -3.2268    0.0000 O   0  0  0  0  0  0  0  0  0  0  0  0
   -3.7396   -2.2439    0.0000 O   0  0  0  0  0  0  0  0  0  0  0  0
   -4.3195   -5.9161    0.0000 O   0  0  0  0  0  0  0  0  0  0  0  0
   -6.0337   -4.0168    0.0000 C   0  0  0  0  0  0  0  0  0  0  0  0
    7.5379    4.4540    0.0000 C   0  0  0  0  0  0  0  0  0  0  0  0
   -4.2436    0.2606    0.0000 C   0  0  0  0  0  0  0  0  0  0  0  0
    2.0502    1.1682    0.0000 C   0  0  0  0  0  0  0  0  0  0  0  0
    0.5376    1.2269    0.0000 C   0  0  0  0  0  0  0  0  0  0  0  0
    2.8151   -0.2854    0.0000 C   0  0  0  0  0  0  0  0  0  0  0  0
   -7.5128   -4.8404    0.0000 O   0  0  0  0  0  0  0  0  0  0  0  0
    8.3197    6.0083    0.0000 O   0  0  0  0  0  0  0  0  0  0  0  0
   -5.0926    1.7732    0.0000 O   0  0  0  0  0  0  0  0  0  0  0  0
    0.3949   -2.0423    0.0000 C   0  0  0  0  0  0  0  0  0  0  0  0
   -0.8154   -2.2185    0.0000 C   0  0  0  0  0  0  0  0  0  0  0  0
    3.7647    4.5127    0.0000 C   0  0  0  0  0  0  0  0  0  0  0  0
    5.7816    1.1090    0.0000 C   0  0  0  0  0  0  0  0  0  0  0  0
   -8.0337   -5.6724    0.0000 C   0  0  0  0  0  0  0  0  0  0  0  0
   -5.9581    2.2772    0.0000 C   0  0  0  0  0  0  0  0  0  0  0  0
    8.2441    6.9918    0.0000 C   0  0  0  0  0  0  0  0  0  0  0  0
   -5.9581    3.2604    0.0000 C   0  0  0  0  0  0  0  0  0  0  0  0
   -9.0253   -5.6470    0.0000 C   0  0  0  0  0  0  0  0  0  0  0  0
    9.0253    7.5630    0.0000 C   0  0  0  0  0  0  0  0  0  0  0  0
  2  3  1  0  0  0  0
  3  1  1  0  0  0  0
  8  4  1  0  0  0  0
  5 10  1  0  0  0  0
  6 11  1  0  0  0  0
  7 12  1  0  0  0  0
  8 15  1  0  0  0  0
  9 22  1  0  0  0  0
 10 29  1  0  0  0  0
 11  9  1  0  0  0  0
 12 10  1  0  0  0  0
 13  1  2  0  0  0  0
 14  9  1  0  0  0  0
 15 13  1  0  0  0  0
 16  5  1  0  0  0  0
 17  7  1  0  0  0  0
 18 21  1  0  0  0  0
 19  4  1  0  0  0  0
 20  1  1  0  0  0  0
 21 14  1  0  0  0  0
  5 22  1  0  0  0  0
 23 19  1  0  0  0  0
 24 27  1  0  0  0  0
  6 25  1  0  0  0  0
  7 26  1  0  0  0  0
 27 20  1  0  0  0  0
 28 20  1  0  0  0  0
 30 29  1  0  0  0  0
 30 44  1  0  0  0  0
 31 24  1  0  0  0  0
 32  2  1  0  0  0  0
 33  4  1  0  0  0  0
 34  3  1  0  0  0  0
 35 32  1  0  0  0  0
 36 26  1  0  0  0  0
 37 25  1  0  0  0  0
 38 31  1  0  0  0  0
 39 59  1  0  0  0  0
 40 60  1  0  0  0  0
 41 58  1  0  0  0  0
 42 15  2  0  0  0  0
 43 28  1  0  0  0  0
 44 33  1  0  0  0  0
 45 46  1  0  0  0  0
 46 28  1  0  0  0  0
 47 26  2  0  0  0  0
 48 25  2  0  0  0  0
 49 31  2  0  0  0  0
 50 40  2  0  0  0  0
 51 39  2  0  0  0  0
 52 41  2  0  0  0  0
 14 53  1  0  0  0  0
 18 54  1  0  0  0  0
 17 55  1  0  0  0  0
 16 56  1  0  0  0  0
 21 57  1  0  0  0  0
 58 37  1  0  0  0  0
 59 38  1  0  0  0  0
 60 36  1  0  0  0  0
  2 61  1  1  0  0  0
  4 62  1  1  0  0  0
  3 63  1  6  0  0  0
 64 41  1  0  0  0  0
 65 39  1  0  0  0  0
 66 40  1  0  0  0  0
 23 67  1  6  0  0  0
 23 68  1  1  0  0  0
 24 69  1  6  0  0  0
 28 70  1  1  0  0  0
 71 64  1  0  0  0  0
 72 66  1  0  0  0  0
 73 65  1  0  0  0  0
 74 72  1  0  0  0  0
 75 71  1  0  0  0  0
 76 73  1  0  0  0  0
 43 34  1  0  0  0  0
  8  2  1  0  0  0  0
 45 24  1  0  0  0  0
 19 35  1  0  0  0  0
 30 23  1  0  0  0  0
 16 17  1  0  0  0  0
 18  6  1  0  0  0  0
M  END
>  <IDNUMBER> (N016-0074)
N016-0074

>  <available> (N016-0074)
190

>  <H_acceptor> (N016-0074)
19

>  <H_donor> (N016-0074)
8

>  <B_rotN> (N016-0074)
27

>  <N_O> (N016-0074)
22

>  <logP> (N016-0074)
1.07

>  <logD> (N016-0074)
2.33

>  <logSw> (N016-0074)
-7.18

>  <PSA> (N016-0074)
321.34

>  <Chiral_centers> (N016-0074)
19

>  <Name> (N016-0074)
ethyl 2-{[10-({6-[(2-ethoxy-2-oxoethyl)carbamoyl]-3-({6-[(2-ethoxy-2-oxoethyl)carbamoyl]-3,4,5-trihydroxyoxan-2-yl}oxy)-4,5-dihydroxyoxan-2-yl}oxy)-2,4a,6a,6b,9,9,12a-heptamethyl-13-oxo-1,2,3,4,4a,5,6
,6a,6b,7,8,8a,9,10,11,12,12a,12b,13,14b-icosahydropicen-2-yl]formamido}acetate

>  <Smile> (N016-0074)
CCOC(CNC(C1(CC2C3=CC(C4C(C)(CCC5C4(C)CCC(C5(C)C)OC4C(OC5OC(C(NCC(=O)OCC)=O)C(C(C5O)O)O)C(C(C(O4)C(NCC(=O)OCC)=O)O)O)C3(C)CCC2(C)CC1)=O)C)=O)=O

>  <Collection> (N016-0074)
DC

>  <InChI Key> (N016-0074)
XFDSQINNWSUHNJ-VRNZYKKYSA-N

>  <PERCENTSP3> (N016-0074)
83.3

$$$$

  -ISIS-  -- StrEd -- 

 30 33  0  0  0  0  0  0  0  0999 V2000
   -0.1193    0.2256    0.0000 C   0  0  0  0  0  0  0  0  0  0  0  0
   -2.7569   -1.3187    0.0000 C   0  0  0  0  0  0  0  0  0  0  0  0
   -2.7569   -2.3377    0.0000 C   0  0  0  0  0  0  0  0  0  0  0  0
   -0.1193   -0.8199    0.0000 C   0  0  0  0  0  0  0  0  0  0  0  0
   -1.8920   -0.8094    0.0000 C   0  0  0  0  0  0  0  0  0  0  0  0
   -1.0003   -1.3187    0.0000 C   0  0  0  0  0  0  0  0  0  0  0  0
    0.8198    0.5068    0.0000 C   0  0  0  0  0  0  0  0  0  0  0  0
   -1.8920   -2.8472    0.0000 C   0  0  0  0  0  0  0  0  0  0  0  0
   -1.0003    0.7086    0.0000 C   0  0  0  0  0  0  0  0  0  0  0  0
   -1.0003   -2.3377    0.0000 C   0  0  0  0  0  0  0  0  0  0  0  0
   -1.8920    0.2256    0.0000 C   0  0  0  0  0  0  0  0  0  0  0  0
    0.8465   -1.1118    0.0000 C   0  0  0  0  0  0  0  0  0  0  0  0
   -3.6379   -0.8094    0.0000 C   0  0  0  0  0  0  0  0  0  0  0  0
    1.4196   -0.2733    0.0000 C   0  0  0  0  0  0  0  0  0  0  0  0
   -3.6379   -2.8472    0.0000 C   0  0  0  0  0  0  0  0  0  0  0  0
    1.1118    1.4619    0.0000 C   0  0  0  0  0  0  0  0  0  0  0  0
    2.0831    1.6902    0.0000 C   0  0  0  0  0  0  0  0  0  0  0  0
    2.7569    0.9632    0.0000 C   0  0  0  0  0  0  0  0  0  0  0  0
   -0.1193    1.1809    0.0000 C   0  0  0  0  0  0  0  0  0  0  0  0
    3.7228    1.1913    0.0000 C   0  0  0  0  0  0  0  0  0  0  0  0
   -4.5030   -1.3187    0.0000 C   0  0  0  0  0  0  0  0  0  0  0  0
   -4.5030   -2.3377    0.0000 C   0  0  0  0  0  0  0  0  0  0  0  0
   -2.7569   -0.4377    0.0000 C   0  0  0  0  0  0  0  0  0  0  0  0
    4.4128    0.4804    0.0000 C   0  0  0  0  0  0  0  0  0  0  0  0
   -5.3679   -2.8472    0.0000 O   0  0  0  0  0  0  0  0  0  0  0  0
    4.0041    2.1361    0.0000 C   0  0  0  0  0  0  0  0  0  0  0  0
    0.4378    2.1837    0.0000 C   0  0  0  0  0  0  0  0  0  0  0  0
    4.1474   -0.4749    0.0000 C   0  0  0  0  0  0  0  0  0  0  0  0
    5.3679    0.7086    0.0000 C   0  0  0  0  0  0  0  0  0  0  0  0
    3.3301    2.8472    0.0000 C   0  0  0  0  0  0  0  0  0  0  0  0
  5  2  1  0  0  0  0
  3  2  1  0  0  0  0
  4  1  1  0  0  0  0
  5 11  1  0  0  0  0
  6  4  1  0  0  0  0
  7  1  1  0  0  0  0
  8 10  1  0  0  0  0
  9  1  1  0  0  0  0
 10  6  1  0  0  0  0
 11  9  1  0  0  0  0
 12  4  1  0  0  0  0
 13  2  1  0  0  0  0
 14  7  1  0  0  0  0
 15  3  1  0  0  0  0
 16  7  1  0  0  0  0
 17 16  1  0  0  0  0
 18 17  1  0  0  0  0
  1 19  1  0  0  0  0
 20 18  1  0  0  0  0
 21 13  1  0  0  0  0
 22 21  1  0  0  0  0
  2 23  1  0  0  0  0
 24 20  1  0  0  0  0
 22 25  1  0  0  0  0
 26 20  1  0  0  0  0
 27 16  1  0  0  0  0
 28 24  1  0  0  0  0
 29 24  1  0  0  0  0
 30 26  1  0  0  0  0
 12 14  1  0  0  0  0
  5  6  1  0  0  0  0
  3  8  2  0  0  0  0
 15 22  1  0  0  0  0
M  END
>  <IDNUMBER> (N050-0024)
N050-0024

>  <available> (N050-0024)
234

>  <H_acceptor> (N050-0024)
1

>  <H_donor> (N050-0024)
1

>  <B_rotN> (N050-0024)
7

>  <N_O> (N050-0024)
1

>  <logP> (N050-0024)
8.07

>  <logD> (N050-0024)
9.62

>  <logSw> (N050-0024)
-9.18

>  <PSA> (N050-0024)
20.23

>  <Chiral_centers> (N050-0024)
9

>  <Name> (N050-0024)
1-(5-ethyl-6-methylheptan-2-yl)-9a,11a-dimethyl-1H,2H,3H,3aH,3bH,4H,6H,7H,8H,9H,9aH,9bH,10H,11H,11aH-cyclopenta[a]phenanthren-7-ol

>  <Smile> (N050-0024)
CCC(CCC(C1C2(C)CCC3C4(C)C(=CCC3C2CC1)CC(CC4)O)C)C(C)C

>  <Collection> (N050-0024)
DC

>  <InChI Key> (N050-0024)
KZJWDPNRJALLNS-UHFFFAOYSA-N

>  <PERCENTSP3> (N050-0024)
93.1

$$$$

  -ISIS-  -- StrEd -- 

 24 27  0  0  0  0  0  0  0  0999 V2000
    1.5135    0.7699    0.0000 C   0  0  0  0  0  0  0  0  0  0  0  0
    2.4502    1.0503    0.0000 C   0  0  0  0  0  0  0  0  0  0  0  0
   -1.1166   -0.7700    0.0000 C   0  0  0  0  0  0  0  0  0  0  0  0
    1.5135   -0.2725    0.0000 C   0  0  0  0  0  0  0  0  0  0  0  0
   -0.2541   -0.2620    0.0000 C   0  0  0  0  0  0  0  0  0  0  0  0
    0.6350   -0.7700    0.0000 C   0  0  0  0  0  0  0  0  0  0  0  0
    3.0482    0.2724    0.0000 C   0  0  0  0  0  0  0  0  0  0  0  0
   -1.1166   -1.7862    0.0000 C   0  0  1  0  0  0  0  0  0  0  0  0
    0.6350    1.2516    0.0000 C   0  0  0  0  0  0  0  0  0  0  0  0
    2.4765   -0.5636    0.0000 C   0  0  0  0  0  0  0  0  0  0  0  0
   -0.2541    0.7699    0.0000 C   0  0  0  0  0  0  0  0  0  0  0  0
   -1.9951   -0.2620    0.0000 C   0  0  0  0  0  0  0  0  0  0  0  0
    0.6350   -1.7862    0.0000 C   0  0  0  0  0  0  0  0  0  0  0  0
    2.7413    2.0029    0.0000 C   0  0  0  0  0  0  0  0  0  0  0  0
   -0.2541   -2.2941    0.0000 C   0  0  0  0  0  0  0  0  0  0  0  0
   -1.9951   -2.2941    0.0000 C   0  0  0  0  0  0  0  0  0  0  0  0
    3.7203    2.2040    0.0000 O   0  0  0  0  0  0  0  0  0  0  0  0
    1.5135    1.7225    0.0000 C   0  0  0  0  0  0  0  0  0  0  0  0
   -2.8578   -0.7700    0.0000 C   0  0  0  0  0  0  0  0  0  0  0  0
   -2.8578   -1.7862    0.0000 C   0  0  1  0  0  0  0  0  0  0  0  0
   -1.1166    0.1085    0.0000 C   0  0  0  0  0  0  0  0  0  0  0  0
   -3.7203   -2.2941    0.0000 O   0  0  0  0  0  0  0  0  0  0  0  0
    2.0427    2.7386    0.0000 C   0  0  0  0  0  0  0  0  0  0  0  0
   -1.0903   -2.7386    0.0000 H   0  0  0  0  0  0  0  0  0  0  0  0
  2  1  1  0  0  0  0
  3  5  1  0  0  0  0
  4  1  1  0  0  0  0
  5 11  1  0  0  0  0
  6  4  1  0  0  0  0
  7  2  2  0  0  0  0
  8  3  1  0  0  0  0
  9  1  1  0  0  0  0
 10  4  1  0  0  0  0
 11  9  1  0  0  0  0
 12  3  1  0  0  0  0
 13  6  1  0  0  0  0
 14  2  1  0  0  0  0
 15 13  1  0  0  0  0
 16  8  1  0  0  0  0
 17 14  2  0  0  0  0
 18  1  1  0  0  0  0
 19 12  1  0  0  0  0
 20 19  1  0  0  0  0
 21  3  1  0  0  0  0
 20 22  1  6  0  0  0
 23 14  1  0  0  0  0
  8 24  1  6  0  0  0
  7 10  1  0  0  0  0
  6  5  1  0  0  0  0
  8 15  1  0  0  0  0
 20 16  1  0  0  0  0
M  END
>  <IDNUMBER> (N044-0005)
N044-0005

>  <available> (N044-0005)
9

>  <H_acceptor> (N044-0005)
2

>  <H_donor> (N044-0005)
1

>  <B_rotN> (N044-0005)
2

>  <N_O> (N044-0005)
2

>  <logP> (N044-0005)
4.76

>  <logD> (N044-0005)
4.76

>  <logSw> (N044-0005)
-5.11

>  <PSA> (N044-0005)
37.3

>  <Chiral_centers> (N044-0005)
7

>  <Name> (N044-0005)
1-{7-hydroxy-9a,11a-dimethyl-3H,3aH,3bH,4H,5H,5aH,6H,7H,8H,9H,9aH,9bH,10H,11H,11aH-cyclopenta[a]phenanthren-1-yl}ethan-1-one

>  <Smile> (N044-0005)
C12(\C(=C/CC1C1C(C3([C@@](CC1)(C[C@@H](CC3)O)[H])C)CC2)\C(=O)C)C

>  <Collection> (N044-0005)
DC

>  <InChI Key> (N044-0005)
SFXPZLCQRZASKK-AKMOWATISA-N

>  <PERCENTSP3> (N044-0005)
85.714

$$$$

  -ISIS-  -- StrEd -- 

 30 33  0  0  0  0  0  0  0  0999 V2000
    0.8579   -0.6014    0.0000 C   0  0  0  0  0  0  0  0  0  0  0  0
    0.8579    0.3847    0.0000 C   0  0  0  0  0  0  0  0  0  0  0  0
   -0.0028   -1.0919    0.0000 C   0  0  1  0  0  0  0  0  0  0  0  0
    2.1065    1.6959    0.0000 C   0  0  0  0  0  0  0  0  0  0  0  0
    1.7757    0.6413    0.0000 C   0  0  0  0  0  0  0  0  0  0  0  0
   -0.8522   -0.6014    0.0000 C   0  0  1  0  0  0  0  0  0  0  0  0
    1.4736    2.5170    0.0000 C   0  0  0  0  0  0  0  0  0  0  0  0
    2.1065    3.4349    0.0000 C   0  0  0  0  0  0  0  0  0  0  0  0
    1.7757   -0.9036    0.0000 C   0  0  0  0  0  0  0  0  0  0  0  0
   -0.0028    0.8922    0.0000 C   0  0  0  0  0  0  0  0  0  0  0  0
   -1.8786   -0.6985    0.0000 C   0  0  0  0  0  0  0  0  0  0  0  0
    3.1327    3.0928    0.0000 O   0  0  0  0  0  0  0  0  0  0  0  0
    2.3402   -0.1113    0.0000 C   0  0  0  0  0  0  0  0  0  0  0  0
   -0.8522    0.3847    0.0000 C   0  0  0  0  0  0  0  0  0  0  0  0
    0.4360   -2.0097    0.0000 C   0  0  0  0  0  0  0  0  0  0  0  0
    3.1327    2.0381    0.0000 C   0  0  0  0  0  0  0  0  0  0  0  0
   -0.5332   -3.7086    0.0000 C   0  0  0  0  0  0  0  0  0  0  0  0
    1.7359    4.5294    0.0000 O   0  0  0  0  0  0  0  0  0  0  0  0
   -1.5593   -3.7883    0.0000 C   0  0  0  0  0  0  0  0  0  0  0  0
   -2.2435    0.1396    0.0000 O   0  0  0  0  0  0  0  0  0  0  0  0
    0.8579   -1.6391    0.0000 O   0  0  0  0  0  0  0  0  0  0  0  0
   -2.6310   -1.3653    0.0000 C   0  0  0  0  0  0  0  0  0  0  0  0
   -0.1909   -4.5294    0.0000 O   0  0  0  0  0  0  0  0  0  0  0  0
    0.2194   -2.9959    0.0000 C   0  0  0  0  0  0  0  0  0  0  0  0
    0.8579    1.3539    0.0000 C   0  0  0  0  0  0  0  0  0  0  0  0
   -2.4257   -3.2980    0.0000 C   0  0  0  0  0  0  0  0  0  0  0  0
   -2.8479   -2.3516    0.0000 C   0  0  0  0  0  0  0  0  0  0  0  0
   -3.1327   -3.8568    0.0000 O   0  0  0  0  0  0  0  0  0  0  0  0
   -0.0028   -0.2310    0.0000 H   0  0  0  0  0  0  0  0  0  0  0  0
   -0.8353   -1.4624    0.0000 H   0  0  0  0  0  0  0  0  0  0  0  0
  2  1  1  0  0  0  0
  3  1  1  0  0  0  0
  4  5  1  0  0  0  0
  5  2  1  0  0  0  0
  6  3  1  0  0  0  0
  7  4  2  0  0  0  0
  8  7  1  0  0  0  0
  9  1  1  0  0  0  0
 10  2  1  0  0  0  0
 11  6  1  0  0  0  0
 12 16  1  0  0  0  0
 13  9  1  0  0  0  0
 14  6  1  0  0  0  0
 15  3  1  0  0  0  0
 16  4  1  0  0  0  0
 17 24  1  0  0  0  0
 18  8  2  0  0  0  0
 19 17  1  0  0  0  0
 20 11  2  0  0  0  0
 21  1  1  0  0  0  0
 22 11  1  0  0  0  0
 23 17  2  0  0  0  0
 24 15  1  0  0  0  0
 25  2  1  0  0  0  0
 26 19  1  0  0  0  0
 27 22  1  0  0  0  0
 28 26  1  0  0  0  0
  3 29  1  1  0  0  0
  6 30  1  6  0  0  0
  5 13  1  0  0  0  0
 14 10  1  0  0  0  0
 27 26  1  0  0  0  0
 12  8  1  0  0  0  0
M  END
>  <IDNUMBER> (0449-0090)
0449-0090

>  <available> (0449-0090)
19

>  <H_acceptor> (0449-0090)
6

>  <H_donor> (0449-0090)
2

>  <B_rotN> (0449-0090)
3

>  <N_O> (0449-0090)
6

>  <logP> (0449-0090)
-2.12

>  <logD> (0449-0090)
-2.12

>  <logSw> (0449-0090)
-1.16

>  <PSA> (0449-0090)
100.9

>  <Chiral_centers> (0449-0090)
6

>  <Name> (0449-0090)
9,13b-dihydroxy-3a-methyl-3-(5-oxo-2,5-dihydrofuran-3-yl)-hexadecahydro-1H-cyclodeca[e]indene-6,11-dione

>  <Smile> (0449-0090)
C12(C(C(/C/3=C/C(OC3)=O)CC1)(CC[C@]1([C@]2(CCC(CC(CCC1=O)O)=O)[H])[H])C)O

>  <Collection> (0449-0090)
DC

>  <InChI Key> (0449-0090)
PZRKPEWWTNTXAD-KUGARGSUSA-N

>  <PERCENTSP3> (0449-0090)
77.273

$$$$

  -ISIS-  -- StrEd -- 

 35 39  0  0  0  0  0  0  0  0999 V2000
    1.1361   -0.7410    0.0000 C   0  0  0  0  0  0  0  0  0  0  0  0
   -1.4756   -1.2595    0.0000 C   0  0  0  0  0  0  0  0  0  0  0  0
    1.1361    0.2964    0.0000 C   0  0  0  0  0  0  0  0  0  0  0  0
   -1.4756   -2.2659    0.0000 C   0  0  0  0  0  0  0  0  0  0  0  0
   -0.6172   -0.7410    0.0000 C   0  0  2  0  0  0  0  0  0  0  0  0
    0.2593   -1.2595    0.0000 C   0  0  1  0  0  0  0  0  0  0  0  0
    2.3029    1.5002    0.0000 C   0  0  0  0  0  0  0  0  0  0  0  0
    2.0374    0.5496    0.0000 C   0  0  0  0  0  0  0  0  0  0  0  0
    3.2539    1.8521    0.0000 C   0  0  0  0  0  0  0  0  0  0  0  0
    3.2539    2.7412    0.0000 C   0  0  0  0  0  0  0  0  0  0  0  0
    2.0684   -1.0804    0.0000 C   0  0  0  0  0  0  0  0  0  0  0  0
    0.2285    0.7593    0.0000 C   0  0  0  0  0  0  0  0  0  0  0  0
   -3.1918    1.7040    0.0000 C   0  0  0  0  0  0  0  0  0  0  0  0
   -2.3338   -0.7410    0.0000 C   0  0  0  0  0  0  0  0  0  0  0  0
   -0.6172    0.2533    0.0000 C   0  0  0  0  0  0  0  0  0  0  0  0
   -2.3338   -2.7723    0.0000 C   0  0  0  0  0  0  0  0  0  0  0  0
    2.2907    3.1302    0.0000 O   0  0  0  0  0  0  0  0  0  0  0  0
    2.6301   -0.2533    0.0000 C   0  0  0  0  0  0  0  0  0  0  0  0
    0.2593   -2.2659    0.0000 C   0  0  0  0  0  0  0  0  0  0  0  0
   -2.3338    0.2222    0.0000 N   0  0  0  0  0  0  0  0  0  0  0  0
   -0.6172   -2.7723    0.0000 C   0  0  0  0  0  0  0  0  0  0  0  0
   -1.4756   -0.2655    0.0000 C   0  0  0  0  0  0  0  0  0  0  0  0
    1.5928    2.4016    0.0000 C   0  0  0  0  0  0  0  0  0  0  0  0
   -2.3338    1.2163    0.0000 N   0  0  0  0  0  0  0  0  0  0  0  0
   -3.1918    2.7103    0.0000 O   0  0  0  0  0  0  0  0  0  0  0  0
    4.1118    3.2167    0.0000 O   0  0  0  0  0  0  0  0  0  0  0  0
    1.1361   -1.7471    0.0000 O   0  0  0  0  0  0  0  0  0  0  0  0
   -1.4756   -3.2167    0.0000 O   0  0  0  0  0  0  0  0  0  0  0  0
   -4.0500    1.1854    0.0000 N   0  0  0  0  0  0  0  0  0  0  0  0
   -3.2228   -2.2659    0.0000 C   0  0  1  0  0  0  0  0  0  0  0  0
    1.1361    1.2592    0.0000 C   0  0  0  0  0  0  0  0  0  0  0  0
   -3.2228   -1.2595    0.0000 C   0  0  0  0  0  0  0  0  0  0  0  0
   -4.1118   -2.7723    0.0000 O   0  0  0  0  0  0  0  0  0  0  0  0
    0.2593   -0.2964    0.0000 H   0  0  0  0  0  0  0  0  0  0  0  0
   -0.6172   -1.7164    0.0000 H   0  0  0  0  0  0  0  0  0  0  0  0
  2  5  1  0  0  0  0
  3  1  1  0  0  0  0
  4 21  1  0  0  0  0
  5  6  1  0  0  0  0
  6  1  1  0  0  0  0
  8  7  1  0  0  0  0
  8  3  1  0  0  0  0
  9  7  2  0  0  0  0
 10  9  1  0  0  0  0
 11  1  1  0  0  0  0
 12  3  1  0  0  0  0
 13 24  1  0  0  0  0
 14  2  1  0  0  0  0
 15  5  1  0  0  0  0
 16  4  1  0  0  0  0
 17 23  1  0  0  0  0
 18 11  1  0  0  0  0
 19  6  1  0  0  0  0
 20 22  2  0  0  0  0
 21 19  1  0  0  0  0
  2 22  1  0  0  0  0
 23  7  1  0  0  0  0
 24 20  1  0  0  0  0
 25 13  2  0  0  0  0
 26 10  2  0  0  0  0
  1 27  1  0  0  0  0
  4 28  1  0  0  0  0
 29 13  1  0  0  0  0
 30 16  1  0  0  0  0
  3 31  1  0  0  0  0
 32 14  1  0  0  0  0
 30 33  1  6  0  0  0
  6 34  1  1  0  0  0
  5 35  1  6  0  0  0
  8 18  1  0  0  0  0
 12 15  1  0  0  0  0
  2  4  1  0  0  0  0
 32 30  1  0  0  0  0
 17 10  1  0  0  0  0
M  END
>  <IDNUMBER> (N023-0004)
N023-0004

>  <available> (N023-0004)
165

>  <H_acceptor> (N023-0004)
7

>  <H_donor> (N023-0004)
6

>  <B_rotN> (N023-0004)
7

>  <N_O> (N023-0004)
9

>  <logP> (N023-0004)
0.45

>  <logD> (N023-0004)
0.29

>  <logSw> (N023-0004)
-2.64

>  <PSA> (N023-0004)
154.47

>  <Chiral_centers> (N023-0004)
8

>  <Name> (N023-0004)
[(E)-{[3a,5a,7-trihydroxy-11a-methyl-1-(5-oxo-2,5-dihydrofuran-3-yl)-hexadecahydro-1H-cyclopenta[a]phenanthren-9a-yl]methylidene}amino]urea

>  <Smile> (N023-0004)
OC1CC2(C(C3C(C4(O)CCC(C4(C)CC3)C3=CC(=O)OC3)CC2)(CC1)C=NNC(=O)N)O

>  <Collection> (N023-0004)
DC

>  <InChI Key> (N023-0004)
GFJQQPYCTIQFPJ-RVDLOMDQSA-N

>  <PERCENTSP3> (N023-0004)
79.2

$$$$

  -ISIS-  -- StrEd -- 

 31 35  0  0  0  0  0  0  0  0999 V2000
   -1.1057   -1.6404    0.0000 C   0  0  0  0  0  0  0  0  0  0  0  0
    1.3928   -1.1525    0.0000 C   0  0  0  0  0  0  0  0  0  0  0  0
    1.3928   -0.1902    0.0000 C   0  0  0  0  0  0  0  0  0  0  0  0
   -1.1057   -2.6024    0.0000 C   0  0  0  0  0  0  0  0  0  0  0  0
   -0.2799   -1.1525    0.0000 C   0  0  2  0  0  0  0  0  0  0  0  0
    0.5457   -1.6404    0.0000 C   0  0  1  0  0  0  0  0  0  0  0  0
    2.5987    1.0876    0.0000 C   0  0  0  0  0  0  0  0  0  0  0  0
    2.2902    0.0683    0.0000 C   0  0  0  0  0  0  0  0  0  0  0  0
    1.9956    1.8915    0.0000 C   0  0  0  0  0  0  0  0  0  0  0  0
   -1.0911   -0.3483    0.0000 C   0  0  0  0  0  0  0  0  0  0  0  0
    2.5987    2.7890    0.0000 C   0  0  0  0  0  0  0  0  0  0  0  0
    2.2902   -1.4466    0.0000 C   0  0  0  0  0  0  0  0  0  0  0  0
    0.5457    0.2907    0.0000 C   0  0  0  0  0  0  0  0  0  0  0  0
   -1.0911    0.8579    0.0000 N   0  0  0  0  0  0  0  0  0  0  0  0
   -1.9815   -1.1525    0.0000 C   0  0  0  0  0  0  0  0  0  0  0  0
   -0.2799   -0.1902    0.0000 C   0  0  0  0  0  0  0  0  0  0  0  0
   -1.9815   -3.0476    0.0000 C   0  0  0  0  0  0  0  0  0  0  0  0
    3.6182    2.4659    0.0000 O   0  0  0  0  0  0  0  0  0  0  0  0
    2.8429   -0.6713    0.0000 C   0  0  0  0  0  0  0  0  0  0  0  0
    0.5457   -2.6024    0.0000 C   0  0  0  0  0  0  0  0  0  0  0  0
   -0.2799   -3.0476    0.0000 C   0  0  0  0  0  0  0  0  0  0  0  0
    3.6182    1.4320    0.0000 C   0  0  0  0  0  0  0  0  0  0  0  0
    2.2541    3.8588    0.0000 O   0  0  0  0  0  0  0  0  0  0  0  0
    1.3928   -2.1717    0.0000 O   0  0  0  0  0  0  0  0  0  0  0  0
   -1.1057   -3.8588    0.0000 O   0  0  0  0  0  0  0  0  0  0  0  0
   -2.7568   -2.6024    0.0000 C   0  0  0  0  0  0  0  0  0  0  0  0
    1.3928    0.7573    0.0000 C   0  0  0  0  0  0  0  0  0  0  0  0
   -2.7568   -1.6404    0.0000 C   0  0  0  0  0  0  0  0  0  0  0  0
   -3.6182   -3.1049    0.0000 O   0  0  0  0  0  0  0  0  0  0  0  0
   -0.2799   -2.0712    0.0000 H   0  0  0  0  0  0  0  0  0  0  0  0
    0.5457   -0.7932    0.0000 H   0  0  0  0  0  0  0  0  0  0  0  0
  2  6  1  0  0  0  0
  3 13  1  0  0  0  0
  4  1  1  0  0  0  0
  5  1  1  0  0  0  0
  6  5  1  0  0  0  0
  8  7  1  0  0  0  0
  8  3  1  0  0  0  0
  9  7  2  0  0  0  0
  1 10  1  0  0  0  0
 11  9  1  0  0  0  0
 12  2  1  0  0  0  0
 13 16  1  0  0  0  0
 14 10  3  0  0  0  0
 15  1  1  0  0  0  0
 16  5  1  0  0  0  0
 17  4  1  0  0  0  0
 18 22  1  0  0  0  0
 19 12  1  0  0  0  0
 20  6  1  0  0  0  0
 21  4  1  0  0  0  0
 22  7  1  0  0  0  0
 23 11  2  0  0  0  0
  2 24  1  0  0  0  0
  4 25  1  0  0  0  0
 26 28  1  0  0  0  0
  3 27  1  0  0  0  0
 28 15  1  0  0  0  0
 26 29  1  0  0  0  0
  5 30  1  6  0  0  0
  6 31  1  1  0  0  0
 20 21  1  0  0  0  0
 26 17  1  0  0  0  0
  2  3  1  0  0  0  0
  8 19  1  0  0  0  0
 18 11  1  0  0  0  0
M  END
>  <IDNUMBER> (0449-0076)
0449-0076

>  <available> (0449-0076)
56

>  <H_acceptor> (0449-0076)
6

>  <H_donor> (0449-0076)
3

>  <B_rotN> (0449-0076)
5

>  <N_O> (0449-0076)
6

>  <logP> (0449-0076)
1.46

>  <logD> (0449-0076)
0.37

>  <logSw> (0449-0076)
-0.71

>  <PSA> (0449-0076)
110.78

>  <Chiral_centers> (0449-0076)
8

>  <Name> (0449-0076)
3a,5a,7-trihydroxy-11a-methyl-1-(5-oxo-2,5-dihydrofuran-3-yl)-hexadecahydro-1H-cyclopenta[a]phenanthrene-9a-carbonitrile

>  <Smile> (0449-0076)
OC1CC2(C(CC1)(C#N)C1C(C3(CCC(C3(CC1)C)C1=CC(=O)OC1)O)CC2)O

>  <Collection> (0449-0076)
DC

>  <InChI Key> (0449-0076)
BAOMKOXOVLCSLQ-PWQQVRBZSA-N

>  <PERCENTSP3> (0449-0076)
82.6

$$$$

  -ISIS-  -- StrEd -- 

 32 36  0  0  0  0  0  0  0  0999 V2000
    1.4200   -1.1355    0.0000 C   0  0  0  0  0  0  0  0  0  0  0  0
   -1.1378   -1.6422    0.0000 C   0  0  0  0  0  0  0  0  0  0  0  0
    1.4200   -0.1746    0.0000 C   0  0  0  0  0  0  0  0  0  0  0  0
   -1.1378   -2.6033    0.0000 C   0  0  0  0  0  0  0  0  0  0  0  0
   -0.2774   -1.1355    0.0000 C   0  0  2  0  0  0  0  0  0  0  0  0
    0.5594   -1.6422    0.0000 C   0  0  1  0  0  0  0  0  0  0  0  0
    2.6723    1.0875    0.0000 C   0  0  0  0  0  0  0  0  0  0  0  0
    2.2947    0.0933    0.0000 C   0  0  0  0  0  0  0  0  0  0  0  0
    2.0175    1.9147    0.0000 C   0  0  0  0  0  0  0  0  0  0  0  0
    2.6723    2.8326    0.0000 C   0  0  0  0  0  0  0  0  0  0  0  0
    2.2947   -1.4367    0.0000 C   0  0  0  0  0  0  0  0  0  0  0  0
    0.5594    0.3083    0.0000 C   0  0  0  0  0  0  0  0  0  0  0  0
   -2.0080   -1.1355    0.0000 C   0  0  0  0  0  0  0  0  0  0  0  0
   -0.2774   -0.1746    0.0000 C   0  0  0  0  0  0  0  0  0  0  0  0
   -2.0080   -3.0765    0.0000 C   0  0  0  0  0  0  0  0  0  0  0  0
    3.6717    2.4645    0.0000 O   0  0  0  0  0  0  0  0  0  0  0  0
    2.8780   -0.6526    0.0000 C   0  0  0  0  0  0  0  0  0  0  0  0
    0.5594   -2.6033    0.0000 C   0  0  0  0  0  0  0  0  0  0  0  0
   -0.2774   -3.0765    0.0000 C   0  0  0  0  0  0  0  0  0  0  0  0
    3.6717    1.4318    0.0000 C   0  0  0  0  0  0  0  0  0  0  0  0
   -1.1378   -0.6526    0.0000 C   0  0  0  0  0  0  0  0  0  0  0  0
   -1.9841   -0.1746    0.0000 N   0  0  0  0  0  0  0  0  0  0  0  0
    2.2947    3.8557    0.0000 O   0  0  0  0  0  0  0  0  0  0  0  0
    1.4200   -2.2254    0.0000 O   0  0  0  0  0  0  0  0  0  0  0  0
   -1.1378   -3.8557    0.0000 O   0  0  0  0  0  0  0  0  0  0  0  0
   -2.8015   -2.6033    0.0000 C   0  0  0  0  0  0  0  0  0  0  0  0
    1.4200    0.8151    0.0000 C   0  0  0  0  0  0  0  0  0  0  0  0
   -2.8015   -1.6422    0.0000 C   0  0  0  0  0  0  0  0  0  0  0  0
   -1.9841    0.9155    0.0000 O   0  0  0  0  0  0  0  0  0  0  0  0
   -3.6717   -3.1338    0.0000 O   0  0  0  0  0  0  0  0  0  0  0  0
    0.5594   -0.7817    0.0000 H   0  0  0  0  0  0  0  0  0  0  0  0
   -0.2774   -2.0772    0.0000 H   0  0  0  0  0  0  0  0  0  0  0  0
  2  5  1  0  0  0  0
  3  1  1  0  0  0  0
  4 19  1  0  0  0  0
  5  6  1  0  0  0  0
  6  1  1  0  0  0  0
  8  7  1  0  0  0  0
  8  3  1  0  0  0  0
  9  7  2  0  0  0  0
 10  9  1  0  0  0  0
 11  1  1  0  0  0  0
 12  3  1  0  0  0  0
 13  2  1  0  0  0  0
 14  5  1  0  0  0  0
 15  4  1  0  0  0  0
 16 20  1  0  0  0  0
 17 11  1  0  0  0  0
 18  6  1  0  0  0  0
 19 18  1  0  0  0  0
 20  7  1  0  0  0  0
  2 21  1  0  0  0  0
 22 21  2  0  0  0  0
 23 10  2  0  0  0  0
  1 24  1  0  0  0  0
  4 25  1  0  0  0  0
 26 15  1  0  0  0  0
  3 27  1  0  0  0  0
 28 13  1  0  0  0  0
 29 22  1  0  0  0  0
 26 30  1  0  0  0  0
  6 31  1  1  0  0  0
  5 32  1  6  0  0  0
  8 17  1  0  0  0  0
 12 14  1  0  0  0  0
  4  2  1  0  0  0  0
 26 28  1  0  0  0  0
 16 10  1  0  0  0  0
M  END
>  <IDNUMBER> (0449-0116)
0449-0116

>  <available> (0449-0116)
535

>  <H_acceptor> (0449-0116)
7

>  <H_donor> (0449-0116)
4

>  <B_rotN> (0449-0116)
6

>  <N_O> (0449-0116)
7

>  <logP> (0449-0116)
1.13

>  <logD> (0449-0116)
1.08

>  <logSw> (0449-0116)
-0.85

>  <PSA> (0449-0116)
119.58

>  <Chiral_centers> (0449-0116)
8

>  <Name> (0449-0116)
4-{3a,5a,7-trihydroxy-9a-[(E)-(hydroxyimino)methyl]-11a-methyl-hexadecahydro-1H-cyclopenta[a]phenanthren-1-yl}-2,5-dihydrofuran-2-one

>  <Smile> (0449-0116)
OC1CC2(C(C3C(C4(O)CCC(C4(C)CC3)C3=CC(=O)OC3)CC2)(C=NO)CC1)O

>  <Collection> (0449-0116)
DC

>  <InChI Key> (0449-0116)
PGQOWJBTWKJAQR-ZSBHDQHBSA-N

>  <PERCENTSP3> (0449-0116)
82.6

$$$$

  -ISIS-  -- StrEd -- 

 31 35  0  0  0  0  0  0  0  0999 V2000
    1.4196   -1.1390    0.0000 C   0  0  0  0  0  0  0  0  0  0  0  0
   -1.1366   -1.6474    0.0000 C   0  0  0  0  0  0  0  0  0  0  0  0
    1.4196   -0.1605    0.0000 C   0  0  0  0  0  0  0  0  0  0  0  0
   -1.1366   -2.6113    0.0000 C   0  0  0  0  0  0  0  0  0  0  0  0
   -0.2734   -1.1390    0.0000 C   0  0  2  0  0  0  0  0  0  0  0  0
    0.5563   -1.6474    0.0000 C   0  0  1  0  0  0  0  0  0  0  0  0
    2.6713    1.1150    0.0000 C   0  0  0  0  0  0  0  0  0  0  0  0
    2.3164    0.1032    0.0000 C   0  0  0  0  0  0  0  0  0  0  0  0
    2.0287    1.9351    0.0000 C   0  0  0  0  0  0  0  0  0  0  0  0
    2.6713    2.8560    0.0000 C   0  0  0  0  0  0  0  0  0  0  0  0
    2.3164   -1.4266    0.0000 C   0  0  0  0  0  0  0  0  0  0  0  0
    0.5563    0.3236    0.0000 C   0  0  0  0  0  0  0  0  0  0  0  0
   -2.0142   -1.1390    0.0000 C   0  0  0  0  0  0  0  0  0  0  0  0
   -0.2734   -0.1605    0.0000 C   0  0  0  0  0  0  0  0  0  0  0  0
   -2.0142   -3.0861    0.0000 C   0  0  0  0  0  0  0  0  0  0  0  0
    3.6832    2.4868    0.0000 O   0  0  0  0  0  0  0  0  0  0  0  0
    2.8775   -0.6547    0.0000 C   0  0  0  0  0  0  0  0  0  0  0  0
    0.5563   -2.6113    0.0000 C   0  0  0  0  0  0  0  0  0  0  0  0
   -0.2734   -3.0861    0.0000 C   0  0  0  0  0  0  0  0  0  0  0  0
    3.6832    1.4508    0.0000 C   0  0  0  0  0  0  0  0  0  0  0  0
    2.3164    3.8774    0.0000 O   0  0  0  0  0  0  0  0  0  0  0  0
    1.4196   -2.2228    0.0000 O   0  0  0  0  0  0  0  0  0  0  0  0
   -1.1366   -3.8774    0.0000 O   0  0  0  0  0  0  0  0  0  0  0  0
   -1.1366   -0.6547    0.0000 C   0  0  0  0  0  0  0  0  0  0  0  0
   -2.7959   -2.6113    0.0000 C   0  0  0  0  0  0  0  0  0  0  0  0
    1.4196    0.8273    0.0000 C   0  0  0  0  0  0  0  0  0  0  0  0
   -2.7959   -1.6474    0.0000 C   0  0  0  0  0  0  0  0  0  0  0  0
   -3.6832   -3.1292    0.0000 O   0  0  0  0  0  0  0  0  0  0  0  0
   -1.9903   -0.1605    0.0000 O   0  0  0  0  0  0  0  0  0  0  0  0
   -0.2734   -2.0839    0.0000 H   0  0  0  0  0  0  0  0  0  0  0  0
    0.5563   -0.7841    0.0000 H   0  0  0  0  0  0  0  0  0  0  0  0
  2  5  1  0  0  0  0
  3  1  1  0  0  0  0
  4 19  1  0  0  0  0
  5  6  1  0  0  0  0
  6  1  1  0  0  0  0
  8  7  1  0  0  0  0
  8  3  1  0  0  0  0
  9  7  2  0  0  0  0
 10  9  1  0  0  0  0
 11  1  1  0  0  0  0
 12  3  1  0  0  0  0
 13  2  1  0  0  0  0
 14  5  1  0  0  0  0
 15  4  1  0  0  0  0
 16 20  1  0  0  0  0
 17 11  1  0  0  0  0
 18  6  1  0  0  0  0
 19 18  1  0  0  0  0
 20  7  1  0  0  0  0
 21 10  2  0  0  0  0
  1 22  1  0  0  0  0
  4 23  1  0  0  0  0
  2 24  1  0  0  0  0
 25 15  1  0  0  0  0
  3 26  1  0  0  0  0
 27 13  1  0  0  0  0
 25 28  1  0  0  0  0
 29 24  1  0  0  0  0
  5 30  1  6  0  0  0
  6 31  1  1  0  0  0
 17  8  1  0  0  0  0
 12 14  1  0  0  0  0
  2  4  1  0  0  0  0
 27 25  1  0  0  0  0
 16 10  1  0  0  0  0
M  END
>  <IDNUMBER> (0449-0098)
0449-0098

>  <available> (0449-0098)
550

>  <H_acceptor> (0449-0098)
6

>  <H_donor> (0449-0098)
4

>  <B_rotN> (0449-0098)
6

>  <N_O> (0449-0098)
6

>  <logP> (0449-0098)
0.98

>  <logD> (0449-0098)
0.7

>  <logSw> (0449-0098)
-0.5

>  <PSA> (0449-0098)
107.22

>  <Chiral_centers> (0449-0098)
8

>  <Name> (0449-0098)
4-[3a,5a,7-trihydroxy-9a-(hydroxymethyl)-11a-methyl-hexadecahydro-1H-cyclopenta[a]phenanthren-1-yl]-2,5-dihydrofuran-2-one

>  <Smile> (0449-0098)
OCC12C3C(C4(O)CCC(C4(C)CC3)C3=CC(=O)OC3)CCC1(O)CC(CC2)O

>  <Collection> (0449-0098)
DC

>  <InChI Key> (0449-0098)
ZNDMLUUNNNHNKC-PWQQVRBZSA-N

>  <PERCENTSP3> (0449-0098)
87

$$$$

  -ISIS-  -- StrEd -- 

 30 34  0  0  0  0  0  0  0  0999 V2000
    1.4326   -1.5722    0.0000 C   0  0  0  0  0  0  0  0  0  0  0  0
    1.4326   -0.5779    0.0000 C   0  0  0  0  0  0  0  0  0  0  0  0
   -1.1536   -2.0520    0.0000 C   0  0  0  0  0  0  0  0  0  0  0  0
    0.5518   -2.0520    0.0000 C   0  0  1  0  0  0  0  0  0  0  0  0
   -1.1536   -3.0552    0.0000 C   0  0  0  0  0  0  0  0  0  0  0  0
   -0.2944   -1.5722    0.0000 C   0  0  2  0  0  0  0  0  0  0  0  0
    2.6670    0.7131    0.0000 C   0  0  0  0  0  0  0  0  0  0  0  0
    2.3530   -0.3248    0.0000 C   0  0  0  0  0  0  0  0  0  0  0  0
    2.0389    1.5375    0.0000 C   0  0  0  0  0  0  0  0  0  0  0  0
    2.6670    2.4795    0.0000 C   0  0  0  0  0  0  0  0  0  0  0  0
   -2.0433   -3.5174    0.0000 C   0  0  0  0  0  0  0  0  0  0  0  0
    2.3530   -1.8515    0.0000 C   0  0  0  0  0  0  0  0  0  0  0  0
    0.5518   -0.0938    0.0000 C   0  0  0  0  0  0  0  0  0  0  0  0
   -0.2944   -0.5779    0.0000 C   0  0  0  0  0  0  0  0  0  0  0  0
    3.7050    2.1437    0.0000 O   0  0  0  0  0  0  0  0  0  0  0  0
    2.9200   -1.0795    0.0000 C   0  0  0  0  0  0  0  0  0  0  0  0
   -2.0433   -1.5722    0.0000 C   0  0  0  0  0  0  0  0  0  0  0  0
    0.5518   -3.0552    0.0000 C   0  0  0  0  0  0  0  0  0  0  0  0
    3.7050    1.0795    0.0000 C   0  0  0  0  0  0  0  0  0  0  0  0
   -0.2944   -3.5174    0.0000 C   0  0  0  0  0  0  0  0  0  0  0  0
   -1.1623   -1.0053    0.0000 C   0  0  0  0  0  0  0  0  0  0  0  0
    2.3225    3.5785    0.0000 O   0  0  0  0  0  0  0  0  0  0  0  0
    1.4326   -2.6277    0.0000 O   0  0  0  0  0  0  0  0  0  0  0  0
   -1.9254   -0.5561    0.0000 O   0  0  0  0  0  0  0  0  0  0  0  0
   -2.8371   -3.0552    0.0000 C   0  0  0  0  0  0  0  0  0  0  0  0
    1.4326    0.3859    0.0000 C   0  0  0  0  0  0  0  0  0  0  0  0
   -2.8371   -2.0520    0.0000 C   0  0  0  0  0  0  0  0  0  0  0  0
   -3.7050   -3.5785    0.0000 O   0  0  0  0  0  0  0  0  0  0  0  0
    0.5518   -1.1928    0.0000 H   0  0  0  0  0  0  0  0  0  0  0  0
   -0.2944   -2.5318    0.0000 H   0  0  0  0  0  0  0  0  0  0  0  0
  2  1  1  0  0  0  0
  3  6  1  0  0  0  0
  4  1  1  0  0  0  0
  5 20  1  0  0  0  0
  6  4  1  0  0  0  0
  8  7  1  0  0  0  0
  8  2  1  0  0  0  0
  9  7  2  0  0  0  0
 10  9  1  0  0  0  0
 11  5  2  0  0  0  0
 12  1  1  0  0  0  0
 13  2  1  0  0  0  0
 14  6  1  0  0  0  0
 15 19  1  0  0  0  0
 16 12  1  0  0  0  0
 17  3  1  0  0  0  0
 18  4  1  0  0  0  0
 19  7  1  0  0  0  0
 20 18  1  0  0  0  0
  3 21  1  0  0  0  0
 22 10  2  0  0  0  0
  1 23  1  0  0  0  0
 24 21  2  0  0  0  0
 25 11  1  0  0  0  0
  2 26  1  0  0  0  0
 27 17  1  0  0  0  0
 25 28  1  0  0  0  0
  4 29  1  1  0  0  0
  6 30  1  6  0  0  0
  8 16  1  0  0  0  0
 14 13  1  0  0  0  0
  3  5  1  0  0  0  0
 27 25  1  0  0  0  0
 15 10  1  0  0  0  0
M  END
>  <IDNUMBER> (0449-0100)
0449-0100

>  <available> (0449-0100)
113

>  <H_acceptor> (0449-0100)
5

>  <H_donor> (0449-0100)
2

>  <B_rotN> (0449-0100)
4

>  <N_O> (0449-0100)
5

>  <logP> (0449-0100)
2.32

>  <logD> (0449-0100)
1.31

>  <logSw> (0449-0100)
-1.48

>  <PSA> (0449-0100)
83.83

>  <Chiral_centers> (0449-0100)
7

>  <Name> (0449-0100)
3a,7-dihydroxy-11a-methyl-1-(5-oxo-2,5-dihydrofuran-3-yl)-1H,2H,3H,3aH,3bH,4H,5H,7H,8H,9H,9aH,9bH,10H,11H,11aH-cyclopenta[a]phenanthrene-9a-carbaldehyde

>  <Smile> (0449-0100)
OC1C=C2C(C3C(C4(O)CCC(C4(C)CC3)C3=CC(=O)OC3)CC2)(CC1)C=O

>  <Collection> (0449-0100)
DC

>  <InChI Key> (0449-0100)
JPIDFRQBAGAXJM-OGUVNLEOSA-N

>  <PERCENTSP3> (0449-0100)
73.9

$$$$

  -ISIS-  -- StrEd -- 

 44 48  0  0  0  0  0  0  0  0999 V2000
    1.1602   -0.4477    0.0000 C   0  0  0  0  0  0  0  0  0  0  0  0
    1.1602    0.5351    0.0000 C   0  0  0  0  0  0  0  0  0  0  0  0
   -1.3968   -0.9394    0.0000 C   0  0  0  0  0  0  0  0  0  0  0  0
    2.3980    1.7919    0.0000 C   0  0  0  0  0  0  0  0  0  0  0  0
    0.2955   -0.9394    0.0000 C   0  0  1  0  0  0  0  0  0  0  0  0
    2.0686    0.7903    0.0000 C   0  0  0  0  0  0  0  0  0  0  0  0
    2.0686   -0.7465    0.0000 C   0  0  0  0  0  0  0  0  0  0  0  0
   -0.5257   -0.4477    0.0000 C   0  0  2  0  0  0  0  0  0  0  0  0
    2.6223    0.0438    0.0000 C   0  0  0  0  0  0  0  0  0  0  0  0
    1.7575    2.6133    0.0000 C   0  0  0  0  0  0  0  0  0  0  0  0
   -1.3968   -1.9288    0.0000 C   0  0  0  0  0  0  0  0  0  0  0  0
    0.2955    1.0141    0.0000 C   0  0  0  0  0  0  0  0  0  0  0  0
    2.3857    3.5091    0.0000 C   0  0  0  0  0  0  0  0  0  0  0  0
    4.1279   -0.7590    0.0000 C   0  0  0  0  0  0  0  0  0  0  0  0
    3.6053    0.0747    0.0000 O   0  0  0  0  0  0  0  0  0  0  0  0
   -0.5257    0.5351    0.0000 C   0  0  0  0  0  0  0  0  0  0  0  0
   -4.8124   -2.0280    0.0000 C   0  0  0  0  0  0  0  0  0  0  0  0
    3.4000    3.1670    0.0000 O   0  0  0  0  0  0  0  0  0  0  0  0
   -2.2740   -0.4477    0.0000 C   0  0  0  0  0  0  0  0  0  0  0  0
    0.2955   -1.9288    0.0000 C   0  0  0  0  0  0  0  0  0  0  0  0
    3.4123    2.1338    0.0000 C   0  0  0  0  0  0  0  0  0  0  0  0
   -5.6524   -3.5525    0.0000 N   0  3  0  0  0  0  0  0  0  0  0  0
    5.4903    0.2241    0.0000 N   0  3  0  0  0  0  0  0  0  0  0  0
   -2.2740   -2.3890    0.0000 C   0  0  0  0  0  0  0  0  0  0  0  0
   -0.5257   -2.3890    0.0000 C   0  0  0  0  0  0  0  0  0  0  0  0
   -3.9040   -2.4762    0.0000 O   0  0  0  0  0  0  0  0  0  0  0  0
    1.1414   -1.7168    0.0000 O   0  0  0  0  0  0  0  0  0  0  0  0
    5.0860   -0.6718    0.0000 C   0  0  0  0  0  0  0  0  0  0  0  0
   -5.6646   -2.5509    0.0000 C   0  0  0  0  0  0  0  0  0  0  0  0
    3.6053   -1.6112    0.0000 O   0  0  0  0  0  0  0  0  0  0  0  0
   -4.8124   -1.0141    0.0000 O   0  0  0  0  0  0  0  0  0  0  0  0
    2.0375    4.5417    0.0000 O   0  0  0  0  0  0  0  0  0  0  0  0
   -3.0643   -1.9288    0.0000 C   0  0  0  0  0  0  0  0  0  0  0  0
    1.1414    1.7172    0.0000 C   0  0  0  0  0  0  0  0  0  0  0  0
   -3.0643   -0.9394    0.0000 C   0  0  0  0  0  0  0  0  0  0  0  0
   -1.3968    0.0438    0.0000 C   0  0  0  0  0  0  0  0  0  0  0  0
   -6.5480   -4.1060    0.0000 C   0  0  0  0  0  0  0  0  0  0  0  0
   -4.7815   -3.9446    0.0000 C   0  0  0  0  0  0  0  0  0  0  0  0
    6.5480    0.3421    0.0000 C   0  0  0  0  0  0  0  0  0  0  0  0
    4.8619    0.9270    0.0000 C   0  0  0  0  0  0  0  0  0  0  0  0
    5.8324    1.1324    0.0000 C   0  0  0  0  0  0  0  0  0  0  0  0
   -5.5901   -4.5417    0.0000 C   0  0  0  0  0  0  0  0  0  0  0  0
   -0.5257   -1.3874    0.0000 H   0  0  0  0  0  0  0  0  0  0  0  0
    0.2955   -0.0745    0.0000 H   0  0  0  0  0  0  0  0  0  0  0  0
  2  1  1  0  0  0  0
  3  8  1  0  0  0  0
  6  4  1  0  0  0  0
  5  1  1  0  0  0  0
  6  2  1  0  0  0  0
  7  1  1  0  0  0  0
  8  5  1  0  0  0  0
  9  7  1  0  0  0  0
 10  4  2  0  0  0  0
 11 25  1  0  0  0  0
 12  2  1  0  0  0  0
 13 10  1  0  0  0  0
 14 15  1  0  0  0  0
  9 15  1  0  0  0  0
 16  8  1  0  0  0  0
 17 26  1  0  0  0  0
 18 21  1  0  0  0  0
 19  3  1  0  0  0  0
 20  5  1  0  0  0  0
 21  4  1  0  0  0  0
 22 29  1  0  0  0  0
 23 28  1  0  0  0  0
 24 11  1  0  0  0  0
 25 20  1  0  0  0  0
 33 26  1  0  0  0  0
  1 27  1  0  0  0  0
 28 14  1  0  0  0  0
 29 17  1  0  0  0  0
 30 14  2  0  0  0  0
 31 17  2  0  0  0  0
 32 13  2  0  0  0  0
 33 24  1  0  0  0  0
  2 34  1  0  0  0  0
 35 19  1  0  0  0  0
  3 36  1  0  0  0  0
 37 22  1  0  0  0  0
 38 22  1  0  0  0  0
 39 23  1  0  0  0  0
 40 23  1  0  0  0  0
 41 23  1  0  0  0  0
 42 22  1  0  0  0  0
  8 43  1  6  0  0  0
  5 44  1  1  0  0  0
  6  9  1  0  0  0  0
 16 12  1  0  0  0  0
 11  3  1  0  0  0  0
 33 35  1  0  0  0  0
 18 13  1  0  0  0  0
M  CHG  2  22   1  23   1
M  END
>  <IDNUMBER> (N008-0012)
N008-0012

>  <available> (N008-0012)
73

>  <Saltdata> (N008-0012)
2 Br-

>  <H_acceptor> (N008-0012)
7

>  <H_donor> (N008-0012)
1

>  <B_rotN> (N008-0012)
10

>  <N_O> (N008-0012)
9

>  <logP> (N008-0012)
0.04

>  <logD> (N008-0012)
0.34

>  <logSw> (N008-0012)
-3.73

>  <PSA> (N008-0012)
99.13

>  <Chiral_centers> (N008-0012)
9

>  <Name> (N008-0012)
(2-{[3a-hydroxy-9a,11a-dimethyl-1-(5-oxo-2,5-dihydrofuran-3-yl)-7-{[2-(trimethylazaniumyl)acetyl]oxy}-hexadecahydro-1H-cyclopenta[a]phenanthren-2-yl]oxy}-2-oxoethyl)trimethylazanium

>  <Smile> (N008-0012)
C[N+](CC(OC1CC2C(C3C(C4(O)CC(C(C4(C)CC3)C3=CC(=O)OC3)OC(C[N+](C)(C)C)=O)CC2)(C)CC1)=O)(C)C

>  <Collection> (N008-0012)
DC

>  <InChI Key> (N008-0012)
MBTJGMMOEIFQDX-UWKCZDNISA-N

>  <PERCENTSP3> (N008-0012)
84.8

$$$$

  -ISIS-  -- StrEd -- 

 36 41  0  0  0  0  0  0  0  0999 V2000
    1.9587    1.1668    0.0000 C   0  0  0  0  0  0  0  0  0  0  0  0
   -0.7322   -1.0478    0.0000 C   0  0  0  0  0  0  0  0  0  0  0  0
    2.3658    2.0505    0.0000 C   0  0  0  0  0  0  0  0  0  0  0  0
   -0.2805   -1.9314    0.0000 C   0  0  0  0  0  0  0  0  0  0  0  0
    2.6984    0.5014    0.0000 C   0  0  0  0  0  0  0  0  0  0  0  0
   -1.7105   -1.2164    0.0000 C   0  0  0  0  0  0  0  0  0  0  0  0
   -0.9707   -2.6464    0.0000 O   0  0  0  0  0  0  0  0  0  0  0  0
    3.3439    1.9761    0.0000 O   0  0  0  0  0  0  0  0  0  0  0  0
    3.5575    0.9980    0.0000 C   0  0  0  0  0  0  0  0  0  0  0  0
   -1.8543   -2.1945    0.0000 C   0  0  0  0  0  0  0  0  0  0  0  0
    4.4165   -0.5264    0.0000 C   0  0  0  0  0  0  0  0  0  0  0  0
   -3.5673   -1.9564    0.0000 C   0  0  0  0  0  0  0  0  0  0  0  0
    3.5575   -1.0278    0.0000 C   0  0  0  0  0  0  0  0  0  0  0  0
   -3.4281   -0.9779    0.0000 C   0  0  0  0  0  0  0  0  0  0  0  0
    2.6984   -0.5264    0.0000 C   0  0  0  0  0  0  0  0  0  0  0  0
   -2.4948   -0.5959    0.0000 C   0  0  0  0  0  0  0  0  0  0  0  0
   -2.7828   -2.5769    0.0000 C   0  0  0  0  0  0  0  0  0  0  0  0
    4.4165    0.5014    0.0000 C   0  0  0  0  0  0  0  0  0  0  0  0
   -4.2128   -0.3477    0.0000 C   0  0  0  0  0  0  0  0  0  0  0  0
    3.5575   -2.0259    0.0000 C   0  0  0  0  0  0  0  0  0  0  0  0
   -0.3746   -0.1191    0.0000 C   0  0  0  0  0  0  0  0  0  0  0  0
    0.9607    0.9779    0.0000 C   0  0  0  0  0  0  0  0  0  0  0  0
    0.6033    0.0447    0.0000 N   0  0  0  0  0  0  0  0  0  0  0  0
    1.8644    2.8946    0.0000 O   0  0  0  0  0  0  0  0  0  0  0  0
    0.6976   -2.0605    0.0000 O   0  0  0  0  0  0  0  0  0  0  0  0
    2.6984   -2.5271    0.0000 C   0  0  0  0  0  0  0  0  0  0  0  0
   -4.0688    0.6305    0.0000 C   0  0  0  0  0  0  0  0  0  0  0  0
   -4.5106   -2.3385    0.0000 C   0  0  0  0  0  0  0  0  0  0  0  0
    5.2952   -1.0278    0.0000 C   0  0  0  0  0  0  0  0  0  0  0  0
    1.3630   -0.7647    0.0000 O   0  0  0  0  0  0  0  0  0  0  0  0
    5.2505    0.0347    0.0000 C   0  0  0  0  0  0  0  0  0  0  0  0
   -3.7013   -2.8946    0.0000 C   0  0  0  0  0  0  0  0  0  0  0  0
    4.4263   -2.5174    0.0000 C   0  0  0  0  0  0  0  0  0  0  0  0
   -5.1560   -0.7152    0.0000 C   0  0  0  0  0  0  0  0  0  0  0  0
   -5.2952   -1.7031    0.0000 C   0  0  0  0  0  0  0  0  0  0  0  0
    5.2952   -2.0158    0.0000 C   0  0  0  0  0  0  0  0  0  0  0  0
  2 21  1  0  0  0  0
  3  1  1  0  0  0  0
  4  2  1  0  0  0  0
  5  1  1  0  0  0  0
  6  2  1  0  0  0  0
  7  4  1  0  0  0  0
  8  3  1  0  0  0  0
  9  5  1  0  0  0  0
 10  6  1  0  0  0  0
 13 11  1  0  0  0  0
 14 12  1  0  0  0  0
 13 15  1  0  0  0  0
 14 16  1  0  0  0  0
 15  5  1  0  0  0  0
 16  6  1  0  0  0  0
 17 10  1  0  0  0  0
 18  9  1  0  0  0  0
 19 14  1  0  0  0  0
 20 13  1  0  0  0  0
 21 23  1  0  0  0  0
  1 22  1  0  0  0  0
 23 22  1  0  0  0  0
 24  3  2  0  0  0  0
 25  4  2  0  0  0  0
 26 20  2  0  0  0  0
 27 19  2  0  0  0  0
 28 12  1  0  0  0  0
 29 11  1  0  0  0  0
 30 23  1  0  0  0  0
 11 31  1  0  0  0  0
 12 32  1  0  0  0  0
 33 20  1  0  0  0  0
 34 19  1  0  0  0  0
 35 34  1  0  0  0  0
 36 33  1  0  0  0  0
  9  8  1  0  0  0  0
 18 11  1  0  0  0  0
  7 10  1  0  0  0  0
 36 29  1  0  0  0  0
 17 12  1  0  0  0  0
 35 28  1  0  0  0  0
M  END
>  <IDNUMBER> (0407-0030)
0407-0030

>  <available> (0407-0030)
98

>  <H_acceptor> (0407-0030)
5

>  <H_donor> (0407-0030)
1

>  <B_rotN> (0407-0030)
5

>  <N_O> (0407-0030)
6

>  <logP> (0407-0030)
3.405

>  <logD> (0407-0030)
7.4623

>  <logSw> (0407-0030)
-5.1319

>  <PSA> (0407-0030)
76.07

>  <Chiral_centers> (0407-0030)
10

>  <Name> (0407-0030)
3-{[({8a-methyl-5-methylidene-2-oxo-dodecahydronaphtho[2,3-b]furan-3-yl}methyl)(hydroxy)amino]methyl}-8a-methyl-5-methylidene-dodecahydronaphtho[2,3-b]furan-2-one

>  <Smile> (0407-0030)
C1(C(C2C(CC3(C(C2)C(=C)CCC3)C)O1)CN(CC1C(OC2C1CC1C(CCCC1=C)(C)C2)=O)O)=O

>  <Collection> (0407-0030)
DC

>  <InChI Key> (0407-0030)
NHSAUJHOEYLNKH-UHFFFAOYSA-N

>  <PERCENTSP3> (0407-0030)
80

$$$$

  -ISIS-  -- StrEd -- 

 30 33  0  0  0  0  0  0  0  0999 V2000
   -0.1486    0.5076    0.0000 C   0  0  2  0  0  0  0  0  0  0  0  0
   -1.8724   -0.4939    0.0000 C   0  0  0  0  0  0  0  0  0  0  0  0
   -2.7367   -0.9968    0.0000 C   0  0  2  0  0  0  0  0  0  0  0  0
   -0.1486   -0.4939    0.0000 C   0  0  0  0  0  0  0  0  0  0  0  0
   -0.9947   -0.9968    0.0000 C   0  0  0  0  0  0  0  0  0  0  0  0
   -1.0173    1.0104    0.0000 C   0  0  2  0  0  0  0  0  0  0  0  0
   -2.7367   -1.9935    0.0000 C   0  0  0  0  0  0  0  0  0  0  0  0
   -1.8953    0.5076    0.0000 C   0  0  0  0  0  0  0  0  0  0  0  0
   -0.9947   -1.9935    0.0000 C   0  0  1  0  0  0  0  0  0  0  0  0
    0.8070    0.8141    0.0000 C   0  0  2  0  0  0  0  0  0  0  0  0
   -1.8724   -2.4874    0.0000 C   0  0  0  0  0  0  0  0  0  0  0  0
    0.8070   -0.8003    0.0000 C   0  0  0  0  0  0  0  0  0  0  0  0
   -3.5962   -0.4939    0.0000 C   0  0  0  0  0  0  0  0  0  0  0  0
    1.3875   -0.0000    0.0000 C   0  0  0  0  0  0  0  0  0  0  0  0
    3.7379    1.4403    0.0000 C   0  0  0  0  0  0  0  0  0  0  0  0
   -3.5962   -2.4874    0.0000 C   0  0  0  0  0  0  0  0  0  0  0  0
    4.0671    2.3731    0.0000 O   0  0  0  0  0  0  0  0  0  0  0  0
    1.1362    1.7695    0.0000 C   0  0  0  0  0  0  0  0  0  0  0  0
    2.1101    1.9890    0.0000 C   0  0  0  0  0  0  0  0  0  0  0  0
   -1.0173    1.9980    0.0000 O   0  0  0  0  0  0  0  0  0  0  0  0
   -0.1396   -2.4874    0.0000 O   0  0  0  0  0  0  0  0  0  0  0  0
    2.7687    1.2436    0.0000 C   0  0  0  0  0  0  0  0  0  0  0  0
   -0.1486    1.5180    0.0000 C   0  0  0  0  0  0  0  0  0  0  0  0
   -4.4742   -0.9968    0.0000 C   0  0  0  0  0  0  0  0  0  0  0  0
   -4.4742   -1.9935    0.0000 C   0  0  1  0  0  0  0  0  0  0  0  0
   -2.7367   -0.0000    0.0000 C   0  0  0  0  0  0  0  0  0  0  0  0
    4.3963    0.7042    0.0000 O   0  0  0  0  0  0  0  0  0  0  0  0
   -5.3611   -2.5239    0.0000 O   0  0  0  0  0  0  0  0  0  0  0  0
    0.4458    2.5239    0.0000 C   0  0  0  0  0  0  0  0  0  0  0  0
    5.3611    0.8916    0.0000 C   0  0  0  0  0  0  0  0  0  0  0  0
  2  8  1  0  0  0  0
  3  2  1  0  0  0  0
  4  1  1  0  0  0  0
  5  4  1  0  0  0  0
  6  1  1  0  0  0  0
  7  3  1  0  0  0  0
  8  6  1  0  0  0  0
  9  5  1  0  0  0  0
 10  1  1  0  0  0  0
 11  9  1  0  0  0  0
 12  4  1  0  0  0  0
 13  3  1  0  0  0  0
 14 10  1  0  0  0  0
 15 22  1  0  0  0  0
 16  7  1  0  0  0  0
 17 15  2  0  0  0  0
 10 18  1  1  0  0  0
 18 19  1  0  0  0  0
  6 20  1  6  0  0  0
  9 21  1  6  0  0  0
 22 19  1  0  0  0  0
  1 23  1  1  0  0  0
 24 13  1  0  0  0  0
 25 24  1  0  0  0  0
  3 26  1  1  0  0  0
 27 15  1  0  0  0  0
 25 28  1  6  0  0  0
 29 18  1  0  0  0  0
 30 27  1  0  0  0  0
 12 14  1  0  0  0  0
  2  5  1  0  0  0  0
  7 11  1  0  0  0  0
 16 25  1  0  0  0  0
M  END
>  <IDNUMBER> (R056-0076)
R056-0076

>  <available> (R056-0076)
789

>  <H_acceptor> (R056-0076)
5

>  <H_donor> (R056-0076)
3

>  <B_rotN> (R056-0076)
8

>  <N_O> (R056-0076)
5

>  <logP> (R056-0076)
3.14

>  <logD> (R056-0076)
2.61

>  <logSw> (R056-0076)
-3.6

>  <PSA> (R056-0076)
86.99

>  <Chiral_centers> (R056-0076)
11

>  <Name> (R056-0076)
methyl 4-{4,7,11-trihydroxy-9a,11a-dimethyl-hexadecahydro-1H-cyclopenta[a]phenanthren-1-yl}pentanoate

>  <Smile> (R056-0076)
COC(CCC(C1C2(C(O)CC3C(C2CC1)C(O)CC1C3(C)CCC(C1)O)C)C)=O

>  <Collection> (R056-0076)
DC

>  <InChI Key> (R056-0076)
DLYVTEULDNMQAR-WRFFLBTCSA-N

>  <PERCENTSP3> (R056-0076)
96

$$$$

  -ISIS-  -- StrEd -- 

 25 28  0  0  0  0  0  0  0  0999 V2000
   -0.3681    0.1483    0.0000 C   0  0  0  0  0  0  0  0  0  0  0  0
    2.2643    1.6896    0.0000 C   0  0  0  0  0  0  0  0  0  0  0  0
    0.4953    0.6568    0.0000 C   0  0  0  0  0  0  0  0  0  0  0  0
    2.2643    0.6463    0.0000 C   0  0  0  0  0  0  0  0  0  0  0  0
    1.3851    0.1483    0.0000 C   0  0  0  0  0  0  0  0  0  0  0  0
   -0.3681   -0.8687    0.0000 C   0  0  2  0  0  0  0  0  0  0  0  0
    3.2018    1.9703    0.0000 C   0  0  0  0  0  0  0  0  0  0  0  0
    1.3851    2.1716    0.0000 C   0  0  0  0  0  0  0  0  0  0  0  0
    0.4953    1.6896    0.0000 C   0  0  0  0  0  0  0  0  0  0  0  0
   -1.2473    0.6568    0.0000 C   0  0  0  0  0  0  0  0  0  0  0  0
    3.2282    0.3548    0.0000 C   0  0  0  0  0  0  0  0  0  0  0  0
    1.3851   -0.8687    0.0000 C   0  0  0  0  0  0  0  0  0  0  0  0
   -2.9739   -2.3677    0.0000 C   0  0  0  0  0  0  0  0  0  0  0  0
   -1.2473   -1.3771    0.0000 C   0  0  0  0  0  0  0  0  0  0  0  0
    0.4953   -1.3771    0.0000 C   0  0  0  0  0  0  0  0  0  0  0  0
    3.8002    1.1917    0.0000 C   0  0  0  0  0  0  0  0  0  0  0  0
   -2.9739   -1.3771    0.0000 O   0  0  0  0  0  0  0  0  0  0  0  0
    3.4931    2.9237    0.0000 O   0  0  0  0  0  0  0  0  0  0  0  0
   -2.1107   -0.8687    0.0000 C   0  0  0  0  0  0  0  0  0  0  0  0
   -3.8002   -2.9237    0.0000 O   0  0  0  0  0  0  0  0  0  0  0  0
   -2.1107    0.1483    0.0000 C   0  0  0  0  0  0  0  0  0  0  0  0
   -0.3681    1.0276    0.0000 C   0  0  0  0  0  0  0  0  0  0  0  0
    2.2643    2.6429    0.0000 C   0  0  0  0  0  0  0  0  0  0  0  0
   -2.1477   -2.9237    0.0000 C   0  0  0  0  0  0  0  0  0  0  0  0
   -0.3575   -1.8325    0.0000 H   0  0  0  0  0  0  0  0  0  0  0  0
  2  8  1  0  0  0  0
  3  1  1  0  0  0  0
  5  4  1  0  0  0  0
  5  3  1  0  0  0  0
  6  1  1  0  0  0  0
  7  2  1  0  0  0  0
  8  9  1  0  0  0  0
  9  3  1  0  0  0  0
 10  1  1  0  0  0  0
 11  4  1  0  0  0  0
 12 15  1  0  0  0  0
 13 17  1  0  0  0  0
 14  6  1  0  0  0  0
 15  6  1  0  0  0  0
 16 11  1  0  0  0  0
 19 17  1  0  0  0  0
 18  7  2  0  0  0  0
 19 21  1  0  0  0  0
 20 13  2  0  0  0  0
 21 10  1  0  0  0  0
  1 22  1  0  0  0  0
  2 23  1  0  0  0  0
 24 13  1  0  0  0  0
  6 25  1  6  0  0  0
 19 14  1  0  0  0  0
  5 12  1  0  0  0  0
  2  4  1  0  0  0  0
  7 16  1  0  0  0  0
M  END
>  <IDNUMBER> (N050-0003)
N050-0003

>  <available> (N050-0003)
127

>  <H_acceptor> (N050-0003)
3

>  <H_donor> (N050-0003)
0

>  <B_rotN> (N050-0003)
2

>  <N_O> (N050-0003)
3

>  <logP> (N050-0003)
3.83

>  <logD> (N050-0003)
4.63

>  <logSw> (N050-0003)
-5.46

>  <PSA> (N050-0003)
43.37

>  <Chiral_centers> (N050-0003)
7

>  <Name> (N050-0003)
9a,11a-dimethyl-1-oxo-hexadecahydro-1H-cyclopenta[a]phenanthren-7-yl acetate

>  <Smile> (N050-0003)
CC(OC1CC2C(C)(CC1)C1C(C3C(C)(CC1)C(CC3)=O)CC2)=O

>  <Collection> (N050-0003)
DC

>  <InChI Key> (N050-0003)
FDCINQSOYQUNKB-HFMUPVQQSA-N

>  <PERCENTSP3> (N050-0003)
90.5

$$$$

  -ISIS-  -- StrEd -- 

 26 29  0  0  0  0  0  0  0  0999 V2000
    1.6173    0.3994    0.0000 C   0  0  0  0  0  0  0  0  0  0  0  0
   -0.9879   -1.0774    0.0000 C   0  0  0  0  0  0  0  0  0  0  0  0
    1.6173   -0.5981    0.0000 C   0  0  0  0  0  0  0  0  0  0  0  0
   -0.1404   -0.5981    0.0000 C   0  0  0  0  0  0  0  0  0  0  0  0
    2.5325    0.6900    0.0000 C   0  0  0  0  0  0  0  0  0  0  0  0
    0.7312   -1.0774    0.0000 C   0  0  0  0  0  0  0  0  0  0  0  0
   -0.9879   -2.1332    0.0000 C   0  0  0  0  0  0  0  0  0  0  0  0
    0.7312    0.9224    0.0000 C   0  0  0  0  0  0  0  0  0  0  0  0
    2.5325    1.5955    0.0000 O   0  0  0  0  0  0  0  0  0  0  0  0
   -0.1404    0.3994    0.0000 C   0  0  0  0  0  0  0  0  0  0  0  0
   -1.8595   -0.5981    0.0000 C   0  0  0  0  0  0  0  0  0  0  0  0
    2.5665   -0.8644    0.0000 C   0  0  0  0  0  0  0  0  0  0  0  0
    0.7312   -2.1332    0.0000 C   0  0  0  0  0  0  0  0  0  0  0  0
    1.6851    2.0991    0.0000 C   0  0  0  0  0  0  0  0  0  0  0  0
    3.1378   -0.0655    0.0000 C   0  0  0  0  0  0  0  0  0  0  0  0
   -1.8595   -2.6077    0.0000 C   0  0  0  0  0  0  0  0  0  0  0  0
   -0.1404   -2.6077    0.0000 C   0  0  0  0  0  0  0  0  0  0  0  0
   -2.7554   -2.1332    0.0000 C   0  0  0  0  0  0  0  0  0  0  0  0
    0.7312    1.6923    0.0000 O   0  0  0  0  0  0  0  0  0  0  0  0
   -3.6270   -2.6463    0.0000 O   0  0  0  0  0  0  0  0  0  0  0  0
   -2.7554   -1.0774    0.0000 C   0  0  0  0  0  0  0  0  0  0  0  0
    1.6173    1.4211    0.0000 C   0  0  0  0  0  0  0  0  0  0  0  0
   -0.9879   -0.1332    0.0000 C   0  0  0  0  0  0  0  0  0  0  0  0
    3.6270    1.0725    0.0000 C   0  0  0  0  0  0  0  0  0  0  0  0
    1.6949    3.0532    0.0000 C   0  0  0  0  0  0  0  0  0  0  0  0
   -1.0120   -3.0532    0.0000 H   0  0  0  0  0  0  0  0  0  0  0  0
  4  2  1  0  0  0  0
  3  1  1  0  0  0  0
  4 10  1  0  0  0  0
  5  1  1  0  0  0  0
  6  3  1  0  0  0  0
  7  2  1  0  0  0  0
  8  1  1  0  0  0  0
  9  5  1  0  0  0  0
 10  8  1  0  0  0  0
 11  2  1  0  0  0  0
 12  3  1  0  0  0  0
 13  6  1  0  0  0  0
 14  9  1  0  0  0  0
  5 15  1  0  0  0  0
  7 16  1  0  0  0  0
 17 13  1  0  0  0  0
 18 21  1  0  0  0  0
 19 14  2  0  0  0  0
 20 18  2  0  0  0  0
 21 11  1  0  0  0  0
  1 22  1  0  0  0  0
  2 23  1  0  0  0  0
 24  5  1  0  0  0  0
 25 14  1  0  0  0  0
 26  7  1  0  0  0  0
 12 15  1  0  0  0  0
  6  4  1  0  0  0  0
 17  7  1  0  0  0  0
 18 16  1  0  0  0  0
M  END
>  <IDNUMBER> (N017-0002)
N017-0002

>  <available> (N017-0002)
51

>  <H_acceptor> (N017-0002)
3

>  <H_donor> (N017-0002)
0

>  <B_rotN> (N017-0002)
2

>  <N_O> (N017-0002)
3

>  <logP> (N017-0002)
3.75

>  <logD> (N017-0002)
5.01

>  <logSw> (N017-0002)
-5.8

>  <PSA> (N017-0002)
43.37

>  <Chiral_centers> (N017-0002)
7

>  <Name> (N017-0002)
1,9a,11a-trimethyl-7-oxo-hexadecahydro-1H-cyclopenta[a]phenanthren-1-yl acetate

>  <Smile> (N017-0002)
CC(OC1(C2(C)CCC3C4(C)C(CCC3C2CC1)CC(CC4)=O)C)=O

>  <Collection> (N017-0002)
DC

>  <InChI Key> (N017-0002)
YKEIELWRIARSQU-UHFFFAOYSA-N

>  <PERCENTSP3> (N017-0002)
90.9

$$$$

  -ISIS-  -- StrEd -- 

 30 33  0  0  0  0  0  0  0  0999 V2000
    1.3695   -0.3493    0.0000 C   0  0  0  0  0  0  0  0  0  0  0  0
   -0.3902   -1.3477    0.0000 C   0  0  0  0  0  0  0  0  0  0  0  0
    1.3695   -1.3477    0.0000 C   0  0  0  0  0  0  0  0  0  0  0  0
    2.2857   -0.0582    0.0000 C   0  0  0  0  0  0  0  0  0  0  0  0
   -1.2386   -1.8276    0.0000 C   0  0  0  0  0  0  0  0  0  0  0  0
    0.4823   -1.8276    0.0000 C   0  0  0  0  0  0  0  0  0  0  0  0
   -0.3902   -0.3493    0.0000 C   0  0  0  0  0  0  0  0  0  0  0  0
    2.8917   -0.8144    0.0000 C   0  0  0  0  0  0  0  0  0  0  0  0
    2.3197   -1.6144    0.0000 C   0  0  0  0  0  0  0  0  0  0  0  0
    0.4823    0.1744    0.0000 C   0  0  0  0  0  0  0  0  0  0  0  0
   -1.2386   -2.8845    0.0000 C   0  0  0  0  0  0  0  0  0  0  0  0
    2.2857    0.8483    0.0000 C   0  0  0  0  0  0  0  0  0  0  0  0
   -2.1113   -1.3477    0.0000 C   0  0  0  0  0  0  0  0  0  0  0  0
    0.4823   -2.8845    0.0000 C   0  0  0  0  0  0  0  0  0  0  0  0
    0.5987    2.8408    0.0000 C   0  0  0  0  0  0  0  0  0  0  0  0
   -2.1113   -3.3596    0.0000 C   0  0  0  0  0  0  0  0  0  0  0  0
   -0.3902   -3.3596    0.0000 C   0  0  0  0  0  0  0  0  0  0  0  0
   -3.0079   -2.8845    0.0000 C   0  0  0  0  0  0  0  0  0  0  0  0
    1.4373    1.3525    0.0000 C   0  0  0  0  0  0  0  0  0  0  0  0
    3.1825    1.2797    0.0000 O   0  0  0  0  0  0  0  0  0  0  0  0
    1.4470    2.3415    0.0000 O   0  0  0  0  0  0  0  0  0  0  0  0
   -0.3562    2.4335    0.0000 O   0  0  0  0  0  0  0  0  0  0  0  0
   -3.8806   -3.3984    0.0000 O   0  0  0  0  0  0  0  0  0  0  0  0
    3.3813    0.3248    0.0000 O   0  0  0  0  0  0  0  0  0  0  0  0
    1.3695    0.6738    0.0000 C   0  0  0  0  0  0  0  0  0  0  0  0
   -3.0079   -1.8276    0.0000 C   0  0  0  0  0  0  0  0  0  0  0  0
   -1.2386   -0.8824    0.0000 C   0  0  0  0  0  0  0  0  0  0  0  0
    3.8806   -0.7805    0.0000 C   0  0  0  0  0  0  0  0  0  0  0  0
    0.6133    3.8055    0.0000 C   0  0  0  0  0  0  0  0  0  0  0  0
   -1.2629   -3.8055    0.0000 H   0  0  0  0  0  0  0  0  0  0  0  0
  2  7  2  0  0  0  0
  3  1  1  0  0  0  0
  4  1  1  0  0  0  0
  5  2  1  0  0  0  0
  6  3  1  0  0  0  0
  7 10  1  0  0  0  0
  8  4  1  0  0  0  0
  9  3  1  0  0  0  0
 10  1  1  0  0  0  0
 11  5  1  0  0  0  0
 12  4  1  0  0  0  0
 13  5  1  0  0  0  0
 14  6  1  0  0  0  0
 15 21  1  0  0  0  0
 11 16  1  0  0  0  0
 17 14  1  0  0  0  0
 18 26  1  0  0  0  0
 19 12  1  0  0  0  0
 20 12  2  0  0  0  0
 21 19  1  0  0  0  0
 22 15  2  0  0  0  0
 23 18  2  0  0  0  0
 24  4  1  0  0  0  0
  1 25  1  0  0  0  0
 26 13  1  0  0  0  0
  5 27  1  0  0  0  0
 28  8  1  0  0  0  0
 29 15  1  0  0  0  0
 30 11  1  0  0  0  0
  8  9  1  0  0  0  0
  2  6  1  0  0  0  0
 11 17  1  0  0  0  0
 16 18  1  0  0  0  0
M  END
>  <IDNUMBER> (N017-0015)
N017-0015

>  <available> (N017-0015)
40

>  <H_acceptor> (N017-0015)
5

>  <H_donor> (N017-0015)
1

>  <B_rotN> (N017-0015)
5

>  <N_O> (N017-0015)
5

>  <logP> (N017-0015)
2.45

>  <logD> (N017-0015)
3.98

>  <logSw> (N017-0015)
-6.69

>  <PSA> (N017-0015)
80.67

>  <Chiral_centers> (N017-0015)
7

>  <Name> (N017-0015)
2-{1-hydroxy-2,9a,11a-trimethyl-7-oxo-1H,2H,3H,3aH,3bH,4H,5H,5aH,6H,7H,8H,9H,9aH,11H,11aH-cyclopenta[a]phenanthren-1-yl}-2-oxoethyl acetate

>  <Smile> (N017-0015)
CC(OCC(C1(C2(C)CC=C3C(C2CC1C)CCC1C3(C)CCC(C1)=O)O)=O)=O

>  <Collection> (N017-0015)
DC

>  <InChI Key> (N017-0015)
HSXGGWBAANDFDP-UHFFFAOYSA-N

>  <PERCENTSP3> (N017-0015)
79.2

$$$$

  -ISIS-  -- StrEd -- 

 28 31  0  0  0  0  0  0  0  0999 V2000
   -0.5545    0.7122    0.0000 C   0  0  0  0  0  0  0  0  0  0  0  0
   -0.5545   -0.3387    0.0000 C   0  0  0  0  0  0  0  0  0  0  0  0
   -2.3363   -0.3280    0.0000 C   0  0  0  0  0  0  0  0  0  0  0  0
   -1.4401   -0.8400    0.0000 C   0  0  0  0  0  0  0  0  0  0  0  0
   -3.2056   -0.8400    0.0000 C   0  0  0  0  0  0  0  0  0  0  0  0
    0.3894    0.9948    0.0000 C   0  0  0  0  0  0  0  0  0  0  0  0
   -1.4401    1.1975    0.0000 C   0  0  0  0  0  0  0  0  0  0  0  0
   -2.3363    0.7122    0.0000 C   0  0  0  0  0  0  0  0  0  0  0  0
    0.4161   -0.6322    0.0000 C   0  0  0  0  0  0  0  0  0  0  0  0
    0.9923    0.2107    0.0000 C   0  0  0  0  0  0  0  0  0  0  0  0
   -1.4401   -1.8643    0.0000 C   0  0  0  0  0  0  0  0  0  0  0  0
   -3.2056   -1.8643    0.0000 C   0  0  1  0  0  0  0  0  0  0  0  0
   -2.3363   -2.3761    0.0000 C   0  0  0  0  0  0  0  0  0  0  0  0
    0.6829    1.9548    0.0000 C   0  0  0  0  0  0  0  0  0  0  0  0
   -0.5545    1.6723    0.0000 C   0  0  0  0  0  0  0  0  0  0  0  0
   -3.2056    0.0456    0.0000 C   0  0  0  0  0  0  0  0  0  0  0  0
   -4.0911   -0.3280    0.0000 C   0  0  0  0  0  0  0  0  0  0  0  0
    2.3363    1.4535    0.0000 C   0  0  0  0  0  0  0  0  0  0  0  0
    1.6592    2.1844    0.0000 C   0  0  0  0  0  0  0  0  0  0  0  0
   -4.0911   -2.3761    0.0000 C   0  0  0  0  0  0  0  0  0  0  0  0
    0.0054    2.6804    0.0000 C   0  0  0  0  0  0  0  0  0  0  0  0
    3.3072    1.6827    0.0000 C   0  0  0  0  0  0  0  0  0  0  0  0
    4.0006    0.9682    0.0000 C   0  0  0  0  0  0  0  0  0  0  0  0
   -4.9606   -0.8400    0.0000 C   0  0  0  0  0  0  0  0  0  0  0  0
    3.7338    0.0081    0.0000 C   0  0  0  0  0  0  0  0  0  0  0  0
    4.9606    1.1975    0.0000 C   0  0  0  0  0  0  0  0  0  0  0  0
   -4.9606   -1.8643    0.0000 C   0  0  0  0  0  0  0  0  0  0  0  0
   -3.1949   -2.6804    0.0000 H   0  0  0  0  0  0  0  0  0  0  0  0
  2  1  1  0  0  0  0
  3  8  1  0  0  0  0
  4  2  1  0  0  0  0
  5  3  1  0  0  0  0
  6  1  1  0  0  0  0
  7  1  1  0  0  0  0
  8  7  1  0  0  0  0
  9  2  1  0  0  0  0
 10  6  1  0  0  0  0
 11  4  1  0  0  0  0
 12  5  1  0  0  0  0
 13 11  1  0  0  0  0
 14  6  1  0  0  0  0
  1 15  1  0  0  0  0
  5 16  1  0  0  0  0
 17  5  1  0  0  0  0
 18 19  1  0  0  0  0
 19 14  1  0  0  0  0
 20 12  1  0  0  0  0
 21 14  1  0  0  0  0
 22 18  1  0  0  0  0
 23 22  1  0  0  0  0
 24 17  1  0  0  0  0
 25 23  1  0  0  0  0
 26 23  1  0  0  0  0
 27 24  1  0  0  0  0
 12 28  1  6  0  0  0
  9 10  1  0  0  0  0
  3  4  1  0  0  0  0
 12 13  1  0  0  0  0
 20 27  1  0  0  0  0
M  END
>  <IDNUMBER> (N050-0026)
N050-0026

>  <available> (N050-0026)
156

>  <H_acceptor> (N050-0026)
0

>  <H_donor> (N050-0026)
0

>  <B_rotN> (N050-0026)
5

>  <N_O> (N050-0026)
0

>  <logP> (N050-0026)
8.86

>  <logD> (N050-0026)
9.09

>  <logSw> (N050-0026)
-10.38

>  <PSA> (N050-0026)
0

>  <Chiral_centers> (N050-0026)
8

>  <Name> (N050-0026)
9a,11a-dimethyl-1-(6-methylheptan-2-yl)-hexadecahydro-1H-cyclopenta[a]phenanthrene

>  <Smile> (N050-0026)
C1CC2C(C3CCC4(C)C(CCC4C3CC2)C(CCCC(C)C)C)(C)CC1

>  <Collection> (N050-0026)
DC

>  <InChI Key> (N050-0026)
XIIAYQZJNBULGD-RFRWEYAISA-N

>  <PERCENTSP3> (N050-0026)
100

$$$$

  -ISIS-  -- StrEd -- 

 31 35  0  0  0  0  0  0  0  0999 V2000
   -0.0326   -0.6891    0.0000 C   0  0  0  0  0  0  0  0  0  0  0  0
    0.7936   -0.2194    0.0000 C   0  0  0  0  0  0  0  0  0  0  0  0
   -0.8459   -0.2194    0.0000 C   0  0  0  0  0  0  0  0  0  0  0  0
    0.7936    0.7284    0.0000 C   0  0  0  0  0  0  0  0  0  0  0  0
   -0.0326    1.1980    0.0000 C   0  0  0  0  0  0  0  0  0  0  0  0
    0.3021    2.1286    0.0000 C   0  0  3  0  0  0  0  0  0  0  0  0
   -1.6590   -0.6891    0.0000 C   0  0  2  0  0  0  0  0  0  0  0  0
   -1.0980    1.7937    0.0000 C   0  0  0  0  0  0  0  0  0  0  0  0
    1.5981    1.1980    0.0000 C   0  0  0  0  0  0  0  0  0  0  0  0
    2.4199    0.7284    0.0000 C   0  0  0  0  0  0  0  0  0  0  0  0
   -1.6590   -1.6285    0.0000 C   0  0  0  0  0  0  0  0  0  0  0  0
    1.5981   -0.6891    0.0000 C   0  0  0  0  0  0  0  0  0  0  0  0
    2.4199   -0.2194    0.0000 C   0  0  0  0  0  0  0  0  0  0  0  0
   -2.4547   -2.1069    0.0000 C   0  0  2  0  0  0  0  0  0  0  0  0
   -0.8459    0.7284    0.0000 C   0  0  0  0  0  0  0  0  0  0  0  0
   -1.9503   -2.7548    0.0000 C   0  0  0  0  0  0  0  0  0  0  0  0
   -0.0326   -1.6285    0.0000 C   0  0  0  0  0  0  0  0  0  0  0  0
   -0.8459   -2.1069    0.0000 C   0  0  0  0  0  0  0  0  0  0  0  0
    1.5981    2.1373    0.0000 O   0  0  0  0  0  0  0  0  0  0  0  0
    1.5981   -1.6285    0.0000 O   0  0  0  0  0  0  0  0  0  0  0  0
   -2.4852   -3.5810    0.0000 O   0  0  0  0  0  0  0  0  0  0  0  0
    0.5197    2.9200    0.0000 C   0  0  3  0  0  0  0  0  0  0  0  0
    3.2766   -0.7197    0.0000 Cl  0  0  0  0  0  0  0  0  0  0  0  0
   -2.4547   -0.2194    0.0000 C   0  0  0  0  0  0  0  0  0  0  0  0
   -0.9501   -2.7548    0.0000 O   0  0  0  0  0  0  0  0  0  0  0  0
   -1.6720    0.1979    0.0000 C   0  0  0  0  0  0  0  0  0  0  0  0
   -3.2766   -1.6285    0.0000 C   0  0  0  0  0  0  0  0  0  0  0  0
   -3.0592   -2.7242    0.0000 C   0  0  0  0  0  0  0  0  0  0  0  0
   -3.2766   -0.6891    0.0000 C   0  0  0  0  0  0  0  0  0  0  0  0
   -0.1456    3.5810    0.0000 C   0  0  0  0  0  0  0  0  0  0  0  0
    1.4199    3.0591    0.0000 C   0  0  0  0  0  0  0  0  0  0  0  0
  2  1  1  0  0  0  0
  3  1  1  0  0  0  0
  4  2  1  0  0  0  0
  5  6  1  0  0  0  0
  6  8  2  0  0  0  0
  7  3  1  0  0  0  0
  8  1  1  0  0  0  0
  9  4  1  0  0  0  0
 10 13  2  0  0  0  0
 11 18  1  0  0  0  0
 12  2  1  0  0  0  0
 13 12  1  0  0  0  0
 14 11  1  0  0  0  0
 15  3  1  0  0  0  0
 14 16  1  6  0  0  0
 17  1  1  0  0  0  0
 18 17  1  0  0  0  0
 19  9  2  0  0  0  0
 20 12  2  0  0  0  0
 21 16  2  0  0  0  0
  6 22  1  4  0  0  0
 23 13  1  0  0  0  0
 24  7  1  0  0  0  0
 25 16  1  0  0  0  0
  7 26  1  1  0  0  0
 27 14  1  0  0  0  0
 14 28  1  1  0  0  0
 29 24  1  0  0  0  0
 22 30  1  0  0  0  0
 31 22  1  0  0  0  0
 15  5  1  0  0  0  0
 11  7  1  0  0  0  0
  5  4  1  0  0  0  0
 27 29  1  0  0  0  0
  9 10  1  0  0  0  0
M  END
>  <IDNUMBER> (N075-0015)
N075-0015

>  <available> (N075-0015)
72

>  <H_acceptor> (N075-0015)
5

>  <H_donor> (N075-0015)
1

>  <B_rotN> (N075-0015)
3

>  <N_O> (N075-0015)
4

>  <logP> (N075-0015)
4.41

>  <logD> (N075-0015)
3.05

>  <logSw> (N075-0015)
-3.72

>  <PSA> (N075-0015)
71.44

>  <Chiral_centers> (N075-0015)
8

>  <Name> (N075-0015)
16-CHLORO-5,9-DIMETHYL-14,17-DIOXO-20-(PROPAN-2-YL)PENTACYCLO[10.6.2.0^(1,10).0^(4,9).0^(13,18)]ICOSA-15,19-DIENE-5-CARBOXYLIC ACID

>  <Smile> (N075-0015)
CC(C1C2C3C(C4(CCC5C(C4C2)(C)CCCC5(C)C(=O)O)C=1)C(C(=CC3=O)Cl)=O)C

>  <Collection> (N075-0015)
DC

>  <InChI Key> (N075-0015)
SPFVAJHKNXOOSR-LEABRJOUSA-N

>  <PERCENTSP3> (N075-0015)
73.1

$$$$

  -ISIS-  -- StrEd -- 

 60 67  0  0  0  0  0  0  0  0999 V2000
    3.3020    1.2001    0.0000 C   0  0  0  0  0  0  0  0  0  0  0  0
    2.6384    0.7661    0.0000 C   0  0  0  0  0  0  0  0  0  0  0  0
    4.6048    1.2001    0.0000 C   0  0  2  0  0  0  0  0  0  0  0  0
    4.6048    1.9296    0.0000 C   0  0  0  0  0  0  0  0  0  0  0  0
    3.9493    0.7661    0.0000 C   0  0  0  0  0  0  0  0  0  0  0  0
    2.6384    1.6920    0.0000 C   0  0  0  0  0  0  0  0  0  0  0  0
   -1.9500   -3.8550    0.0000 C   0  0  0  0  0  0  0  0  0  0  0  0
    2.6384    0.0616    0.0000 C   0  0  0  0  0  0  0  0  0  0  0  0
    5.3093    2.1671    0.0000 C   0  0  0  0  0  0  0  0  0  0  0  0
    5.2930    3.0686    0.0000 C   0  0  1  0  0  0  0  0  0  0  0  0
   -3.1300   -3.8550    0.0000 C   0  0  0  0  0  0  0  0  0  0  0  0
    2.5400   -4.9942    0.0000 C   0  0  0  0  0  0  0  0  0  0  0  0
   -1.3195   -3.0848    0.0000 C   0  0  0  0  0  0  0  0  0  0  0  0
    3.2857   -4.0107    0.0000 C   0  0  0  0  0  0  0  0  0  0  0  0
    3.3020   -0.3316    0.0000 C   0  0  2  0  0  0  0  0  0  0  0  0
    1.9500   -0.3316    0.0000 C   0  0  2  0  0  0  0  0  0  0  0  0
    4.8589    3.7568    0.0000 O   0  0  0  0  0  0  0  0  0  0  0  0
    5.3093    0.9629    0.0000 C   0  0  0  0  0  0  0  0  0  0  0  0
    5.7194    1.5773    0.0000 C   0  0  0  0  0  0  0  0  0  0  0  0
    1.2780   -4.9942    0.0000 C   0  0  0  0  0  0  0  0  0  0  0  0
    3.9493    0.0616    0.0000 C   0  0  0  0  0  0  0  0  0  0  0  0
    3.3020    1.9296    0.0000 C   0  0  0  0  0  0  0  0  0  0  0  0
    3.3020   -2.0032    0.0000 O   0  0  0  0  0  0  0  0  0  0  0  0
    1.3602    0.0616    0.0000 C   0  0  0  0  0  0  0  0  0  0  0  0
   -1.9500   -2.2411    0.0000 O   0  0  0  0  0  0  0  0  0  0  0  0
    2.5400   -3.0848    0.0000 O   0  0  0  0  0  0  0  0  0  0  0  0
   -1.3195   -1.1019    0.0000 O   0  0  0  0  0  0  0  0  0  0  0  0
    1.9500    1.2001    0.0000 C   0  0  0  0  0  0  0  0  0  0  0  0
    3.9493    2.3228    0.0000 C   0  0  0  0  0  0  0  0  0  0  0  0
   -1.9500   -4.7400    0.0000 O   0  0  0  0  0  0  0  0  0  0  0  0
   -3.1300   -3.1259    0.0000 O   0  0  0  0  0  0  0  0  0  0  0  0
    5.4077    4.3714    0.0000 C   0  0  2  0  0  0  0  0  0  0  0  0
   -3.7775   -3.0848    0.0000 C   0  0  0  0  0  0  0  0  0  0  0  0
    0.5325   -4.0107    0.0000 C   0  0  0  0  0  0  0  0  0  0  0  0
   -1.0983   -5.2318    0.0000 C   0  0  0  0  0  0  0  0  0  0  0  0
   -5.5880   -1.8477    0.0000 C   0  0  0  0  0  0  0  0  0  0  0  0
    5.0310    5.2562    0.0000 C   0  0  0  0  0  0  0  0  0  0  0  0
    6.1372    3.2241    0.0000 C   0  0  0  0  0  0  0  0  0  0  0  0
   -3.1300   -2.2411    0.0000 C   0  0  0  0  0  0  0  0  0  0  0  0
    1.2780   -3.0848    0.0000 C   0  0  0  0  0  0  0  0  0  0  0  0
    1.3602    0.7661    0.0000 C   0  0  0  0  0  0  0  0  0  0  0  0
    6.1372    4.0518    0.0000 C   0  0  0  0  0  0  0  0  0  0  0  0
   -0.1395   -4.8384    0.0000 O   0  0  0  0  0  0  0  0  0  0  0  0
   -6.5060   -2.2411    0.0000 O   0  0  0  0  0  0  0  0  0  0  0  0
    2.5400   -5.7562    0.0000 O   0  0  0  0  0  0  0  0  0  0  0  0
    4.6048    0.4711    0.0000 C   0  0  0  0  0  0  0  0  0  0  0  0
    4.6048    2.8149    0.0000 C   0  0  0  0  0  0  0  0  0  0  0  0
    1.2780   -4.0518    0.0000 O   0  0  0  0  0  0  0  0  0  0  0  0
    6.5060    1.5773    0.0000 O   0  0  0  0  0  0  0  0  0  0  0  0
    6.0388    2.5770    0.0000 C   0  0  0  0  0  0  0  0  0  0  0  0
   -3.7775   -4.0107    0.0000 O   0  0  0  0  0  0  0  0  0  0  0  0
    4.6784    6.1742    0.0000 O   0  0  0  0  0  0  0  0  0  0  0  0
    0.5735   -5.1908    0.0000 O   0  0  0  0  0  0  0  0  0  0  0  0
    1.5320   -0.9791    0.0000 C   0  0  0  0  0  0  0  0  0  0  0  0
    2.2612   -0.9791    0.0000 C   0  0  0  0  0  0  0  0  0  0  0  0
    5.9160    5.6661    0.0000 C   0  0  0  0  0  0  0  0  0  0  0  0
    4.1295    4.8957    0.0000 C   0  0  0  0  0  0  0  0  0  0  0  0
   -1.1227   -6.1742    0.0000 C   0  0  0  0  0  0  0  0  0  0  0  0
   -5.5880   -0.9218    0.0000 C   0  0  0  0  0  0  0  0  0  0  0  0
    6.3340    4.8957    0.0000 H   0  0  0  0  0  0  0  0  0  0  0  0
  2  1  1  0  0  0  0
  5  3  1  0  0  0  0
  4 29  1  0  0  0  0
  5  1  1  0  0  0  0
  1  6  1  0  0  0  0
  7 13  1  0  0  0  0
  8  2  1  0  0  0  0
  9  4  1  0  0  0  0
  9 10  1  0  0  0  0
 11  7  1  0  0  0  0
 12 14  1  0  0  0  0
 13 27  1  0  0  0  0
 14 23  1  0  0  0  0
 15 21  1  0  0  0  0
 16  8  1  0  0  0  0
 10 17  1  6  0  0  0
 18  3  1  0  0  0  0
 19 18  1  0  0  0  0
 20 12  1  0  0  0  0
 21  5  1  0  0  0  0
 22  1  1  0  0  0  0
 15 23  1  6  0  0  0
 24 41  1  0  0  0  0
 25 13  1  0  0  0  0
 26 14  1  0  0  0  0
 24 27  1  0  0  0  0
 28  2  1  0  0  0  0
 29 22  1  0  0  0  0
  7 30  1  0  0  0  0
 11 31  1  0  0  0  0
 32 17  1  0  0  0  0
 33 39  1  0  0  0  0
 34 40  1  0  0  0  0
 35 30  1  0  0  0  0
 31 36  1  0  0  0  0
 32 37  1  6  0  0  0
 38 10  1  0  0  0  0
 39 25  1  0  0  0  0
 40 26  1  0  0  0  0
 41 28  1  0  0  0  0
 42 38  1  0  0  0  0
 43 35  2  0  0  0  0
 44 36  2  0  0  0  0
 12 45  1  0  0  0  0
  3 46  1  6  0  0  0
  4 47  1  0  0  0  0
 20 48  1  0  0  0  0
 19 49  1  0  0  0  0
 10 50  1  1  0  0  0
 33 51  1  0  0  0  0
 37 52  1  0  0  0  0
 34 53  1  0  0  0  0
 54 16  1  0  0  0  0
 16 55  1  6  0  0  0
 56 37  1  0  0  0  0
 57 37  1  0  0  0  0
 58 35  1  0  0  0  0
 59 36  1  0  0  0  0
 60 32  1  0  0  0  0
  2  6  1  0  0  0  0
  4  3  1  0  0  0  0
  8 15  1  0  0  0  0
  9 19  1  0  0  0  0
 24 16  1  0  0  0  0
 32 42  1  0  0  0  0
 34 20  1  0  0  0  0
 11 33  1  0  0  0  0
M  END
>  <IDNUMBER> (N040-0002)
N040-0002

>  <available> (N040-0002)
3

>  <H_acceptor> (N040-0002)
15

>  <H_donor> (N040-0002)
6

>  <B_rotN> (N040-0002)
16

>  <N_O> (N040-0002)
15

>  <logP> (N040-0002)
0.92

>  <logD> (N040-0002)
2.46

>  <logSw> (N040-0002)
-4.98

>  <PSA> (N040-0002)
220.13

>  <Chiral_centers> (N040-0002)
20

>  <Name> (N040-0002)
3-(ACETYLOXY)-5-HYDROXY-2-({14-HYDROXY-15-[5-(2-HYDROXYPROPAN-2-YL)-2-METHYLOXOLAN-2-YL]-7,7,12,16-TETRAMETHYL-9-[(3,4,5-TRIHYDROXYOXAN-2-YL)OXY]PENTACYCLO[9.7.0.0^(1,3).0^(3,8).0^(12,16)]OCTADECAN-6-
YL}OXY)OXAN-4-YL ACETATE

>  <Smile> (N040-0002)
CC(OC1C(C(OC2C(C3C4(C5(CCC6(C(C)(CC(C6C6(C)OC(CC6)C(C)(O)C)O)C5CC3OC3C(O)C(C(CO3)O)O)C)C4)CC2)(C)C)OCC1O)OC(=O)C)=O

>  <Collection> (N040-0002)
DC

>  <InChI Key> (N040-0002)
TZHGYWCJIXHMJK-OVHPESEWSA-N

>  <PERCENTSP3> (N040-0002)
95.5

$$$$

  -ISIS-  -- StrEd -- 

 34 37  0  0  0  0  0  0  0  0999 V2000
   -0.6586   -0.5956    0.0000 C   0  0  0  0  0  0  0  0  0  0  0  0
    0.2165   -0.0947    0.0000 C   0  0  1  0  0  0  0  0  0  0  0  0
   -2.4138   -0.5956    0.0000 C   0  0  0  0  0  0  0  0  0  0  0  0
    0.2165    0.9338    0.0000 C   0  0  0  0  0  0  0  0  0  0  0  0
   -1.5385   -0.0858    0.0000 C   0  0  0  0  0  0  0  0  0  0  0  0
   -0.6586   -1.6107    0.0000 C   0  0  0  0  0  0  0  0  0  0  0  0
   -2.4138   -1.6107    0.0000 C   0  0  0  0  0  0  0  0  0  0  0  0
    1.1593    1.2226    0.0000 C   0  0  0  0  0  0  0  0  0  0  0  0
   -1.5385   -2.1205    0.0000 C   0  0  0  0  0  0  0  0  0  0  0  0
    1.4526    2.1791    0.0000 C   0  0  2  0  0  0  0  0  0  0  0  0
   -3.2890   -0.0858    0.0000 C   0  0  0  0  0  0  0  0  0  0  0  0
   -3.2890   -2.1205    0.0000 C   0  0  0  0  0  0  0  0  0  0  0  0
    1.1821   -0.3882    0.0000 C   0  0  0  0  0  0  0  0  0  0  0  0
   -0.6586    1.4392    0.0000 C   0  0  0  0  0  0  0  0  0  0  0  0
   -1.5385    0.9338    0.0000 C   0  0  0  0  0  0  0  0  0  0  0  0
    1.7640    0.4557    0.0000 C   0  0  0  0  0  0  0  0  0  0  0  0
   -4.1689   -0.5956    0.0000 C   0  0  0  0  0  0  0  0  0  0  0  0
   -4.1689   -1.6107    0.0000 C   0  0  0  0  0  0  0  0  0  0  0  0
   -1.5385   -3.1176    0.0000 O   0  0  0  0  0  0  0  0  0  0  0  0
    2.4137    1.8723    0.0000 C   0  0  1  0  0  0  0  0  0  0  0  0
    0.2165   -0.9971    0.0000 O   0  0  0  0  0  0  0  0  0  0  0  0
    4.3086    1.2679    0.0000 C   0  0  0  0  0  0  0  0  0  0  0  0
    2.6303    0.8978    0.0000 C   0  0  0  0  0  0  0  0  0  0  0  0
    1.7459    3.1176    0.0000 O   0  0  0  0  0  0  0  0  0  0  0  0
   -2.4138    0.2931    0.0000 C   0  0  0  0  0  0  0  0  0  0  0  0
    0.2300    1.8949    0.0000 C   0  0  0  0  0  0  0  0  0  0  0  0
    3.5732    0.5956    0.0000 C   0  0  0  0  0  0  0  0  0  0  0  0
   -5.0350   -2.1114    0.0000 O   0  0  0  0  0  0  0  0  0  0  0  0
   -5.0350   -0.0947    0.0000 O   0  0  0  0  0  0  0  0  0  0  0  0
    5.0350    1.9265    0.0000 O   0  0  0  0  0  0  0  0  0  0  0  0
    0.4871    2.4813    0.0000 C   0  0  0  0  0  0  0  0  0  0  0  0
    3.1535    2.5581    0.0000 O   0  0  0  0  0  0  0  0  0  0  0  0
    3.6273    2.0167    0.0000 C   0  0  0  0  0  0  0  0  0  0  0  0
    4.9943    0.5189    0.0000 C   0  0  0  0  0  0  0  0  0  0  0  0
  2  1  1  0  0  0  0
  5  3  1  0  0  0  0
  4  2  1  0  0  0  0
  5  1  1  0  0  0  0
  6  1  2  0  0  0  0
  7  9  1  0  0  0  0
  8  4  1  0  0  0  0
  9  6  1  0  0  0  0
  8 10  1  0  0  0  0
 11  3  1  0  0  0  0
 12  7  1  0  0  0  0
 13  2  1  0  0  0  0
 14 15  1  0  0  0  0
 15  5  1  0  0  0  0
 16 13  1  0  0  0  0
 17 11  1  0  0  0  0
 18 12  1  0  0  0  0
 19  9  2  0  0  0  0
 20 10  1  0  0  0  0
  2 21  1  6  0  0  0
 22 27  1  0  0  0  0
 23 20  1  0  0  0  0
 24 10  1  0  0  0  0
  3 25  1  0  0  0  0
  4 26  1  0  0  0  0
 27 23  1  0  0  0  0
 18 28  1  0  0  0  0
 17 29  1  0  0  0  0
 22 30  1  0  0  0  0
 10 31  1  6  0  0  0
 20 32  1  6  0  0  0
 33 22  1  0  0  0  0
 34 22  1  0  0  0  0
  7  3  1  0  0  0  0
  4 14  1  0  0  0  0
  8 16  1  0  0  0  0
 18 17  1  0  0  0  0
M  END
>  <IDNUMBER> (N029-0001)
N029-0001

>  <available> (N029-0001)
375

>  <H_acceptor> (N029-0001)
7

>  <H_donor> (N029-0001)
6

>  <B_rotN> (N029-0001)
9

>  <N_O> (N029-0001)
7

>  <logP> (N029-0001)
1.87

>  <logD> (N029-0001)
1.94

>  <logSw> (N029-0001)
-3.52

>  <PSA> (N029-0001)
138.45

>  <Chiral_centers> (N029-0001)
10

>  <Name> (N029-0001)
3a,7,8-trihydroxy-9a,11a-dimethyl-1-(2,3,6-trihydroxy-6-methylheptan-2-yl)-1H,2H,3H,3aH,5H,5aH,6H,7H,8H,9H,9aH,9bH,10H,11H,11aH-cyclopenta[a]phenanthren-5-one

>  <Smile> (N029-0001)
CC(CCC(C(C1C2(C(C3=CC(C4C(C)(CC(C(C4)O)O)C3CC2)=O)(O)CC1)C)(C)O)O)(C)O

>  <Collection> (N029-0001)
DC

>  <InChI Key> (N029-0001)
NKDFYOWSKOHCCO-MFLPRDGHSA-N

>  <PERCENTSP3> (N029-0001)
88.9

$$$$

  -ISIS-  -- StrEd -- 

 35 40  0  0  0  0  0  0  0  0999 V2000
    1.5708   -0.0220    0.0000 C   0  0  1  0  0  0  0  0  0  0  0  0
    0.6869   -0.5250    0.0000 C   0  0  1  0  0  0  0  0  0  0  0  0
   -1.0458   -0.5250    0.0000 C   0  0  2  0  0  0  0  0  0  0  0  0
    1.5708    0.9976    0.0000 C   0  0  0  0  0  0  0  0  0  0  0  0
   -0.1750   -0.0000    0.0000 C   0  0  0  0  0  0  0  0  0  0  0  0
   -1.0458   -1.5226    0.0000 C   0  0  0  0  0  0  0  0  0  0  0  0
    2.4414    1.4921    0.0000 C   0  0  0  0  0  0  0  0  0  0  0  0
   -1.9166   -2.0257    0.0000 C   0  0  2  0  0  0  0  0  0  0  0  0
    2.4503    2.4677    0.0000 C   0  0  0  0  0  0  0  0  0  0  0  0
    3.6184    1.9427    0.0000 O   0  0  0  0  0  0  0  0  0  0  0  0
    3.3035    0.9887    0.0000 C   0  0  0  0  0  0  0  0  0  0  0  0
   -2.8003   -1.5226    0.0000 C   0  0  0  0  0  0  0  0  0  0  0  0
    0.6869   -1.5226    0.0000 C   0  0  0  0  0  0  0  0  0  0  0  0
    0.6869    1.5007    0.0000 C   0  0  0  0  0  0  0  0  0  0  0  0
    2.4414   -0.5033    0.0000 C   0  0  0  0  0  0  0  0  0  0  0  0
   -1.9166   -0.0000    0.0000 C   0  0  0  0  0  0  0  0  0  0  0  0
    3.2904    2.9622    0.0000 C   0  0  1  0  0  0  0  0  0  0  0  0
   -0.1750    0.9976    0.0000 C   0  0  0  0  0  0  0  0  0  0  0  0
   -0.1750   -2.0257    0.0000 C   0  0  0  0  0  0  0  0  0  0  0  0
   -3.6494   -2.0257    0.0000 O   0  0  0  0  0  0  0  0  0  0  0  0
    4.4586    0.7131    0.0000 C   0  0  0  0  0  0  0  0  0  0  0  0
   -3.6494   -3.0016    0.0000 C   0  0  0  0  0  0  0  0  0  0  0  0
    3.3035   -0.0000    0.0000 C   0  0  0  0  0  0  0  0  0  0  0  0
   -2.8003   -0.5250    0.0000 C   0  0  0  0  0  0  0  0  0  0  0  0
    4.1523    1.4921    0.0000 C   0  0  0  0  0  0  0  0  0  0  0  0
    4.1523    2.4765    0.0000 C   0  0  0  0  0  0  0  0  0  0  0  0
   -2.8178   -3.6010    0.0000 O   0  0  0  0  0  0  0  0  0  0  0  0
    1.5708   -0.8708    0.0000 C   0  0  0  0  0  0  0  0  0  0  0  0
    0.7086    0.3237    0.0000 C   0  0  0  0  0  0  0  0  0  0  0  0
   -1.0458    0.3586    0.0000 C   0  0  0  0  0  0  0  0  0  0  0  0
   -2.6427   -2.4768    0.0000 C   0  0  0  0  0  0  0  0  0  0  0  0
   -1.1902   -2.4460    0.0000 C   0  0  0  0  0  0  0  0  0  0  0  0
    2.4939    3.4872    0.0000 C   0  0  0  0  0  0  0  0  0  0  0  0
    3.8678    3.6010    0.0000 C   0  0  0  0  0  0  0  0  0  0  0  0
   -4.4586   -3.4654    0.0000 C   0  0  0  0  0  0  0  0  0  0  0  0
  2  1  1  0  0  0  0
  5  3  1  0  0  0  0
  4  1  1  0  0  0  0
  5  2  1  0  0  0  0
  6 19  1  0  0  0  0
  7  4  1  0  0  0  0
  8  6  1  0  0  0  0
  9  7  1  0  0  0  0
 10  9  1  0  0  0  0
 11 23  1  0  0  0  0
 12  8  1  0  0  0  0
 13  2  1  0  0  0  0
 14  4  1  0  0  0  0
 15  1  1  0  0  0  0
 16  3  1  0  0  0  0
 17  9  1  0  0  0  0
 18 14  1  0  0  0  0
 19 13  1  0  0  0  0
 12 20  1  0  0  0  0
 11 21  1  0  0  0  0
 22 20  1  0  0  0  0
 23 15  1  0  0  0  0
 24 16  1  0  0  0  0
 25 11  1  0  0  0  0
 26 25  1  0  0  0  0
 27 22  2  0  0  0  0
  1 28  1  6  0  0  0
  2 29  1  1  0  0  0
  3 30  1  1  0  0  0
  8 31  1  1  0  0  0
  8 32  1  6  0  0  0
 17 33  1  6  0  0  0
 17 34  1  1  0  0  0
 35 22  1  0  0  0  0
 11  7  1  0  0  0  0
 18  5  1  0  0  0  0
 10 21  1  0  0  0  0
  3  6  1  0  0  0  0
 17 26  1  0  0  0  0
 24 12  1  0  0  0  0
M  END
>  <IDNUMBER> (N066-0058)
N066-0058

>  <available> (N066-0058)
77

>  <H_acceptor> (N066-0058)
3

>  <H_donor> (N066-0058)
0

>  <B_rotN> (N066-0058)
2

>  <N_O> (N066-0058)
3

>  <logP> (N066-0058)
6.57

>  <logD> (N066-0058)
9.61

>  <logSw> (N066-0058)
-10.22

>  <PSA> (N066-0058)
35.53

>  <Chiral_centers> (N066-0058)
10

>  <Name> (N066-0058)
(6aR,6bR,12aR)-2,2,6a,6b,9,9,12a-heptamethylicosahydro-2H-1,4a-(epoxymethano)picen-10-yl acetate

>  <Smile> (N066-0058)
CC(OC1C(C2C(C3C(C4(CCC56C(C4CC3)C(OC6)C(C)(C)CC5)C)(C)CC2)(C)CC1)(C)C)=O

>  <Collection> (N066-0058)
DC

>  <InChI Key> (N066-0058)
XFGCWXJSPYRAAG-CJKXVSAMSA-N

>  <PERCENTSP3> (N066-0058)
96.9

$$$$

  -ISIS-  -- StrEd -- 

 85 97  0  0  0  0  0  0  0  0999 V2000
   -4.6870   -0.1290    0.0000 N   0  0  0  0  0  0  0  0  0  0  0  0
   -6.8748   -4.1935    0.0000 N   0  0  0  0  0  0  0  0  0  0  0  0
    6.8748    4.2616    0.0000 N   0  0  0  0  0  0  0  0  0  0  0  0
    2.1498    1.3446    0.0000 C   0  0  0  0  0  0  0  0  0  0  0  0
    1.3902    0.0153    0.0000 C   0  0  1  0  0  0  0  0  0  0  0  0
    2.1498    0.4558    0.0000 C   0  0  2  0  0  0  0  0  0  0  0  0
   -4.5201   -1.8077    0.0000 C   0  0  0  0  0  0  0  0  0  0  0  0
   -5.1428   -4.7403    0.0000 C   0  0  0  0  0  0  0  0  0  0  0  0
   -0.1596    0.0153    0.0000 C   0  0  2  0  0  0  0  0  0  0  0  0
   -3.2971   -3.4337    0.0000 C   0  0  0  0  0  0  0  0  0  0  0  0
   -7.7636   -3.7602    0.0000 N   0  0  0  0  0  0  0  0  0  0  0  0
   -3.7148    0.0683    0.0000 N   0  0  0  0  0  0  0  0  0  0  0  0
    7.7712    3.8285    0.0000 N   0  0  0  0  0  0  0  0  0  0  0  0
    0.6000    0.4558    0.0000 C   0  0  0  0  0  0  0  0  0  0  0  0
   -3.2971   -5.5988    0.0000 C   0  0  0  0  0  0  0  0  0  0  0  0
   -2.6438   -2.6438    0.0000 C   0  0  0  0  0  0  0  0  0  0  0  0
   -4.5201   -1.2989    0.0000 C   0  0  0  0  0  0  0  0  0  0  0  0
   -5.1428   -4.1782    0.0000 C   0  0  0  0  0  0  0  0  0  0  0  0
   -3.9198   -4.7403    0.0000 O   0  0  0  0  0  0  0  0  0  0  0  0
   -3.2971   -1.8077    0.0000 O   0  0  0  0  0  0  0  0  0  0  0  0
    1.3902    1.8233    0.0000 C   0  0  0  0  0  0  0  0  0  0  0  0
   -3.9198   -6.4040    0.0000 C   0  0  0  0  0  0  0  0  0  0  0  0
    0.6000    1.3446    0.0000 C   0  0  0  0  0  0  0  0  0  0  0  0
   -5.1733   -2.6438    0.0000 C   0  0  0  0  0  0  0  0  0  0  0  0
   -5.8113   -5.5988    0.0000 C   0  0  0  0  0  0  0  0  0  0  0  0
   -4.5201   -3.4337    0.0000 C   0  0  0  0  0  0  0  0  0  0  0  0
   -0.1596   -0.9724    0.0000 C   0  0  0  0  0  0  0  0  0  0  0  0
   -8.4398   -4.5048    0.0000 N   0  0  0  0  0  0  0  0  0  0  0  0
    8.4398    4.5733    0.0000 N   0  0  0  0  0  0  0  0  0  0  0  0
   -3.6463    1.0711    0.0000 N   0  0  0  0  0  0  0  0  0  0  0  0
    3.1222    2.0358    0.0000 C   0  0  0  0  0  0  0  0  0  0  0  0
   -5.1428   -6.4040    0.0000 C   0  0  0  0  0  0  0  0  0  0  0  0
   -6.0163   -3.6842    0.0000 O   0  0  0  0  0  0  0  0  0  0  0  0
   -5.0288   -1.0405    0.0000 O   0  0  0  0  0  0  0  0  0  0  0  0
    6.9507    5.2870    0.0000 C   0  0  0  0  0  0  0  0  0  0  0  0
   -6.9433   -5.2187    0.0000 C   0  0  0  0  0  0  0  0  0  0  0  0
   -5.2340    0.7063    0.0000 C   0  0  0  0  0  0  0  0  0  0  0  0
   -3.2971   -4.3985    0.0000 O   0  0  0  0  0  0  0  0  0  0  0  0
    6.0163    3.7679    0.0000 O   0  0  0  0  0  0  0  0  0  0  0  0
   -0.9801   -1.4588    0.0000 C   0  0  1  0  0  0  0  0  0  0  0  0
    5.0135    4.3375    0.0000 C   0  0  0  0  0  0  0  0  0  0  0  0
    4.0870    3.6995    0.0000 C   0  0  2  0  0  0  0  0  0  0  0  0
    3.1222    3.1299    0.0000 C   0  0  0  0  0  0  0  0  0  0  0  0
    4.0870    1.4738    0.0000 C   0  0  1  0  0  0  0  0  0  0  0  0
   -2.6438   -1.4588    0.0000 O   0  0  0  0  0  0  0  0  0  0  0  0
    7.9685    5.4695    0.0000 C   0  0  0  0  0  0  0  0  0  0  0  0
   -4.5578    1.4738    0.0000 C   0  0  0  0  0  0  0  0  0  0  0  0
   -7.9688   -5.4012    0.0000 C   0  0  0  0  0  0  0  0  0  0  0  0
   -1.7853   -0.9724    0.0000 C   0  0  0  0  0  0  0  0  0  0  0  0
    1.3902   -0.9724    0.0000 C   0  0  0  0  0  0  0  0  0  0  0  0
   -0.9801    0.4558    0.0000 C   0  0  0  0  0  0  0  0  0  0  0  0
    3.1222   -0.2052    0.0000 C   0  0  0  0  0  0  0  0  0  0  0  0
    0.6000   -1.4588    0.0000 C   0  0  0  0  0  0  0  0  0  0  0  0
   -3.8971   -0.9347    0.0000 O   0  0  0  0  0  0  0  0  0  0  0  0
   -4.6870   -3.8665    0.0000 O   0  0  0  0  0  0  0  0  0  0  0  0
   -0.3648    1.8913    0.0000 O   0  0  0  0  0  0  0  0  0  0  0  0
    4.0870    0.3418    0.0000 C   0  0  0  0  0  0  0  0  0  0  0  0
   -1.7853    0.0153    0.0000 C   0  0  0  0  0  0  0  0  0  0  0  0
    5.0135    5.5225    0.0000 O   0  0  0  0  0  0  0  0  0  0  0  0
    5.0518    3.1299    0.0000 C   0  0  0  0  0  0  0  0  0  0  0  0
    5.0518    2.0358    0.0000 C   0  0  0  0  0  0  0  0  0  0  0  0
   -3.9198   -7.1712    0.0000 O   0  0  0  0  0  0  0  0  0  0  0  0
   -4.5201   -2.6665    0.0000 O   0  0  0  0  0  0  0  0  0  0  0  0
   -5.8113   -6.5482    0.0000 O   0  0  0  0  0  0  0  0  0  0  0  0
   -5.1733   -3.3728    0.0000 O   0  0  0  0  0  0  0  0  0  0  0  0
   -5.1428   -5.6214    0.0000 O   0  0  0  0  0  0  0  0  0  0  0  0
    1.3902    0.8888    0.0000 C   0  0  0  0  0  0  0  0  0  0  0  0
   -0.1596    0.9421    0.0000 C   0  0  0  0  0  0  0  0  0  0  0  0
    2.1725   -0.6077    0.0000 C   0  0  0  0  0  0  0  0  0  0  0  0
   -6.3278   -5.9859    0.0000 C   0  0  0  0  0  0  0  0  0  0  0  0
   -6.1988    0.9268    0.0000 C   0  0  0  0  0  0  0  0  0  0  0  0
    6.3278    6.0469    0.0000 C   0  0  0  0  0  0  0  0  0  0  0  0
   -0.3115   -2.3703    0.0000 C   0  0  0  0  0  0  0  0  0  0  0  0
   -1.5648   -2.5752    0.0000 C   0  0  0  0  0  0  0  0  0  0  0  0
    3.1222    4.2998    0.0000 C   0  0  0  0  0  0  0  0  0  0  0  0
    5.1580    0.8202    0.0000 C   0  0  0  0  0  0  0  0  0  0  0  0
   -8.3106   -6.3278    0.0000 C   0  0  0  0  0  0  0  0  0  0  0  0
    8.3182    6.3963    0.0000 C   0  0  0  0  0  0  0  0  0  0  0  0
   -4.8466    2.4233    0.0000 C   0  0  0  0  0  0  0  0  0  0  0  0
   -6.5100    1.9140    0.0000 C   0  0  0  0  0  0  0  0  0  0  0  0
    6.6923    7.0114    0.0000 C   0  0  0  0  0  0  0  0  0  0  0  0
   -6.6698   -6.9510    0.0000 C   0  0  0  0  0  0  0  0  0  0  0  0
    7.6573    7.1712    0.0000 C   0  0  0  0  0  0  0  0  0  0  0  0
   -5.8340    2.6435    0.0000 C   0  0  0  0  0  0  0  0  0  0  0  0
   -7.6573   -7.1332    0.0000 C   0  0  0  0  0  0  0  0  0  0  0  0
  2 33  1  0  0  0  0
  3 39  1  0  0  0  0
  4 21  2  0  0  0  0
 14  5  1  0  0  0  0
  6  5  1  0  0  0  0
  7 17  1  0  0  0  0
  8 19  1  0  0  0  0
  9 51  1  0  0  0  0
 10 26  1  0  0  0  0
 11  2  1  0  0  0  0
 12  1  1  0  0  0  0
 13  3  1  0  0  0  0
 14  9  1  0  0  0  0
 15 38  1  0  0  0  0
 16 20  1  0  0  0  0
 17 34  1  0  0  0  0
  8 18  1  0  0  0  0
 19 15  1  0  0  0  0
 20  7  1  0  0  0  0
 21 23  1  0  0  0  0
 22 15  1  0  0  0  0
 23 14  1  0  0  0  0
 24  7  1  0  0  0  0
 25 32  1  0  0  0  0
 26 24  1  0  0  0  0
 27 40  1  0  0  0  0
 28 11  2  0  0  0  0
 29 13  2  0  0  0  0
 30 12  2  0  0  0  0
 31  4  1  0  0  0  0
 32 22  1  0  0  0  0
 33 18  1  0  0  0  0
 34  1  1  0  0  0  0
 35  3  1  0  0  0  0
 36  2  1  0  0  0  0
 37  1  1  0  0  0  0
 10 38  1  0  0  0  0
 39 41  1  0  0  0  0
 40 49  1  0  0  0  0
 42 41  1  1  0  0  0
 42 43  1  0  0  0  0
 43 31  1  0  0  0  0
 44 31  1  0  0  0  0
 16 45  1  0  0  0  0
 46 35  2  0  0  0  0
 47 37  2  0  0  0  0
 48 36  2  0  0  0  0
 49 45  1  0  0  0  0
 50 53  1  0  0  0  0
 51 58  1  0  0  0  0
 52  6  1  0  0  0  0
 53 27  1  0  0  0  0
 54 17  2  0  0  0  0
 55 18  2  0  0  0  0
 56 23  2  0  0  0  0
 57 52  1  0  0  0  0
 58 49  1  0  0  0  0
 59 41  2  0  0  0  0
 60 61  1  0  0  0  0
 61 44  1  0  0  0  0
 22 62  1  0  0  0  0
 26 63  1  0  0  0  0
 25 64  1  0  0  0  0
 24 65  1  0  0  0  0
 32 66  1  0  0  0  0
  5 67  1  1  0  0  0
  9 68  1  1  0  0  0
  6 69  1  6  0  0  0
 70 36  1  0  0  0  0
 71 37  1  0  0  0  0
 72 35  1  0  0  0  0
 40 73  1  6  0  0  0
 40 74  1  1  0  0  0
 42 75  1  6  0  0  0
 44 76  1  1  0  0  0
 77 48  1  0  0  0  0
 78 46  1  0  0  0  0
 79 47  1  0  0  0  0
 80 71  2  0  0  0  0
 81 72  2  0  0  0  0
 82 70  2  0  0  0  0
 83 81  1  0  0  0  0
 84 80  1  0  0  0  0
 85 82  1  0  0  0  0
 30 47  1  0  0  0  0
 79 84  2  0  0  0  0
 10 16  1  0  0  0  0
 27  9  1  0  0  0  0
 25  8  1  0  0  0  0
 50  5  1  0  0  0  0
  4  6  1  0  0  0  0
 28 48  1  0  0  0  0
 44 57  1  0  0  0  0
 77 85  2  0  0  0  0
 60 42  1  0  0  0  0
 29 46  1  0  0  0  0
 78 83  2  0  0  0  0
M  END
>  <IDNUMBER> (N026-0090)
N026-0090

>  <available> (N026-0090)
253

>  <H_acceptor> (N026-0090)
22

>  <H_donor> (N026-0090)
5

>  <B_rotN> (N026-0090)
18

>  <N_O> (N026-0090)
25

>  <logP> (N026-0090)
7.16

>  <logD> (N026-0090)
6.55

>  <logSw> (N026-0090)
-8.6

>  <PSA> (N026-0090)
326.17

>  <Chiral_centers> (N026-0090)
19

>  <Name> (N026-0090)
1H-1,2,3-benzotriazol-1-yl 5-({6-[(1H-1,2,3-benzotriazol-1-yloxy)carbonyl]-3,4,5-trihydroxyoxan-2-yl}oxy)-6-({11-[(1H-1,2,3-benzotriazol-1-yloxy)carbonyl]-4,4,6a,6b,8a,11,14b-heptamethyl-14-oxo-1,2,3,
4,4a,5,6,6a,6b,7,8,8a,9,10,11,12,12a,14,14a,14b-icosahydropicen-3-yl}oxy)-3,4-dihydroxyoxane-2-carboxylate

>  <Smile> (N026-0090)
c1cc2[nH0][nH0][nH0](OC(C3OC(OC4C(OC(C(O[nH0]5c6c([nH0][nH0]5)cccc6)=O)C(O)C4O)OC4C(C5C(CC4)(C4C(C)(CC5)C5(C(=CC4=O)C4CC(C(O[nH0]6[nH0][nH0]c7c6cccc7)=O)(CCC4(CC5)C)C)C)C)(C)C)C(O)C(C3O)O)=O)c2cc1

>  <Collection> (N026-0090)
DC

>  <InChI Key> (N026-0090)
IHQXXGPFRSPNEE-KHBAKWKOSA-N

>  <PERCENTSP3> (N026-0090)
60

$$$$

  -ISIS-  -- StrEd -- 

 35 39  0  0  0  0  0  0  0  0999 V2000
    0.5183   -0.8305    0.0000 C   0  0  2  0  0  0  0  0  0  0  0  0
    0.5183    0.1874    0.0000 C   0  0  0  0  0  0  0  0  0  0  0  0
   -0.3285   -1.3531    0.0000 C   0  0  1  0  0  0  0  0  0  0  0  0
   -2.0586   -1.3531    0.0000 C   0  0  2  0  0  0  0  0  0  0  0  0
   -1.1935   -0.8305    0.0000 C   0  0  0  0  0  0  0  0  0  0  0  0
   -2.0586   -2.2971    0.0000 C   0  0  0  0  0  0  0  0  0  0  0  0
    1.3742    0.6777    0.0000 C   0  0  2  0  0  0  0  0  0  0  0  0
   -2.9237   -2.8290    0.0000 C   0  0  2  0  0  0  0  0  0  0  0  0
   -0.3701    0.6544    0.0000 C   0  0  0  0  0  0  0  0  0  0  0  0
    2.2253    2.1997    0.0000 C   0  0  1  0  0  0  0  0  0  0  0  0
    1.3600    1.6863    0.0000 C   0  0  0  0  0  0  0  0  0  0  0  0
    2.2391    0.1874    0.0000 C   0  0  1  0  0  0  0  0  0  0  0  0
    3.0812    2.6856    0.0000 C   0  0  0  0  0  0  0  0  0  0  0  0
   -0.3285   -2.2971    0.0000 C   0  0  0  0  0  0  0  0  0  0  0  0
   -1.1935    0.1688    0.0000 C   0  0  0  0  0  0  0  0  0  0  0  0
    1.3742   -1.2978    0.0000 C   0  0  0  0  0  0  0  0  0  0  0  0
   -2.9237   -0.8305    0.0000 C   0  0  0  0  0  0  0  0  0  0  0  0
   -1.1935   -2.8197    0.0000 C   0  0  0  0  0  0  0  0  0  0  0  0
   -3.7797   -2.2971    0.0000 C   0  0  0  0  0  0  0  0  0  0  0  0
    2.2391   -0.8119    0.0000 C   0  0  0  0  0  0  0  0  0  0  0  0
    3.0950    1.7094    0.0000 C   0  0  0  0  0  0  0  0  0  0  0  0
    3.0950    0.7008    0.0000 C   0  0  0  0  0  0  0  0  0  0  0  0
    3.0580    3.6849    0.0000 O   0  0  0  0  0  0  0  0  0  0  0  0
   -3.7797   -1.3531    0.0000 C   0  0  0  0  0  0  0  0  0  0  0  0
    0.5183   -1.7973    0.0000 C   0  0  0  0  0  0  0  0  0  0  0  0
   -0.3376   -0.4558    0.0000 C   0  0  0  0  0  0  0  0  0  0  0  0
   -2.0586   -0.3449    0.0000 C   0  0  0  0  0  0  0  0  0  0  0  0
    3.9694    2.2321    0.0000 O   0  0  0  0  0  0  0  0  0  0  0  0
   -3.8815   -3.4628    0.0000 C   0  0  0  0  0  0  0  0  0  0  0  0
   -2.4011   -3.6849    0.0000 C   0  0  0  0  0  0  0  0  0  0  0  0
   -4.8021   -2.8290    0.0000 O   0  0  0  0  0  0  0  0  0  0  0  0
    1.3510    2.6763    0.0000 C   0  0  0  0  0  0  0  0  0  0  0  0
    3.1367   -0.3539    0.0000 C   0  0  0  0  0  0  0  0  0  0  0  0
    4.8021    2.7641    0.0000 C   0  0  0  0  0  0  0  0  0  0  0  0
    0.5599    1.1866    0.0000 H   0  0  0  0  0  0  0  0  0  0  0  0
  2  1  1  0  0  0  0
  3  1  1  0  0  0  0
  5  4  1  0  0  0  0
  5  3  1  0  0  0  0
  6 18  1  0  0  0  0
  7  2  1  0  0  0  0
  8  6  1  0  0  0  0
  9  2  2  0  0  0  0
 10 11  1  0  0  0  0
 11  7  1  0  0  0  0
 12 20  1  0  0  0  0
 10 13  1  1  0  0  0
 14  3  1  0  0  0  0
 15  5  1  0  0  0  0
 16  1  1  0  0  0  0
 17  4  1  0  0  0  0
 18 14  1  0  0  0  0
 19  8  1  0  0  0  0
 20 16  1  0  0  0  0
 21 22  1  0  0  0  0
 22 12  1  0  0  0  0
 23 13  2  0  0  0  0
 24 17  1  0  0  0  0
  1 25  1  6  0  0  0
  3 26  1  1  0  0  0
  4 27  1  1  0  0  0
 28 13  1  0  0  0  0
  8 29  1  1  0  0  0
  8 30  1  6  0  0  0
 19 31  1  0  0  0  0
 10 32  1  6  0  0  0
 12 33  1  1  0  0  0
 34 28  1  0  0  0  0
  7 35  1  1  0  0  0
  7 12  1  0  0  0  0
 15  9  1  0  0  0  0
  6  4  1  0  0  0  0
 21 10  1  0  0  0  0
 19 24  1  0  0  0  0
M  END
>  <IDNUMBER> (N064-0033)
N064-0033

>  <available> (N064-0033)
150

>  <H_acceptor> (N064-0033)
3

>  <H_donor> (N064-0033)
1

>  <B_rotN> (N064-0033)
3

>  <N_O> (N064-0033)
3

>  <logP> (N064-0033)
6.67

>  <logD> (N064-0033)
8.87

>  <logSw> (N064-0033)
-9.46

>  <PSA> (N064-0033)
46.53

>  <Chiral_centers> (N064-0033)
9

>  <Name> (N064-0033)
methyl 10-hydroxy-2,4a,6a,6b,9,9,12a-heptamethyl-1,2,3,4,4a,5,6,6a,6b,7,8,8a,9,10,11,12,12a,12b,13,14b-icosahydropicene-2-carboxylate

>  <Smile> (N064-0033)
COC(C1(CCC2(C(C3C(CC2)(C2(C(C4(CCC(C(C4CC2)(C)C)O)C)CC=3)C)C)C1)C)C)=O

>  <Collection> (N064-0033)
DC

>  <InChI Key> (N064-0033)
APODVSVTRILENH-BTKFIOCOSA-N

>  <PERCENTSP3> (N064-0033)
90.3

$$$$

  -ISIS-  -- StrEd -- 

 48 54  0  0  0  0  0  0  0  0999 V2000
    1.7919   -0.4582    0.0000 C   0  0  1  0  0  0  0  0  0  0  0  0
    0.9496   -0.9560    0.0000 C   0  0  1  0  0  0  0  0  0  0  0  0
   -0.7900   -0.9560    0.0000 C   0  0  2  0  0  0  0  0  0  0  0  0
    1.7919    0.5748    0.0000 C   0  0  0  0  0  0  0  0  0  0  0  0
    0.0829   -0.4582    0.0000 C   0  0  0  0  0  0  0  0  0  0  0  0
   -0.7900   -1.9148    0.0000 C   0  0  0  0  0  0  0  0  0  0  0  0
    2.6464    1.0789    0.0000 C   0  0  0  0  0  0  0  0  0  0  0  0
   -1.6445   -2.4498    0.0000 C   0  0  2  0  0  0  0  0  0  0  0  0
    3.5195    0.5748    0.0000 C   0  0  0  0  0  0  0  0  0  0  0  0
    2.8861    2.0810    0.0000 C   0  0  2  0  0  0  0  0  0  0  0  0
   -4.3615   -1.9026    0.0000 C   0  0  0  0  0  0  0  0  0  0  0  0
   -2.5174   -1.9148    0.0000 C   0  0  0  0  0  0  0  0  0  0  0  0
   -3.5318   -2.4498    0.0000 O   0  0  0  0  0  0  0  0  0  0  0  0
    0.9496   -1.9148    0.0000 C   0  0  0  0  0  0  0  0  0  0  0  0
    6.1320    0.0031    0.0000 C   0  0  0  0  0  0  0  0  0  0  0  0
    2.6464   -0.9129    0.0000 C   0  0  0  0  0  0  0  0  0  0  0  0
    0.9068    1.0605    0.0000 C   0  0  0  0  0  0  0  0  0  0  0  0
   -1.6445   -0.4582    0.0000 C   0  0  0  0  0  0  0  0  0  0  0  0
    0.0829    0.5439    0.0000 C   0  0  0  0  0  0  0  0  0  0  0  0
    0.0829   -2.4190    0.0000 C   0  0  0  0  0  0  0  0  0  0  0  0
    2.2346    2.8185    0.0000 C   0  0  0  0  0  0  0  0  0  0  0  0
    3.8576    2.1670    0.0000 C   0  0  0  0  0  0  0  0  0  0  0  0
    5.3020    0.5011    0.0000 O   0  0  0  0  0  0  0  0  0  0  0  0
    3.5195   -0.4271    0.0000 C   0  0  0  0  0  0  0  0  0  0  0  0
    4.2878    1.2569    0.0000 C   0  0  0  0  0  0  0  0  0  0  0  0
    4.4169    0.0461    0.0000 C   0  0  0  0  0  0  0  0  0  0  0  0
   -2.5174   -0.9560    0.0000 C   0  0  0  0  0  0  0  0  0  0  0  0
   -4.3615   -0.9129    0.0000 O   0  0  0  0  0  0  0  0  0  0  0  0
   -5.2900   -2.2838    0.0000 C   0  0  0  0  0  0  0  0  0  0  0  0
    6.9988    0.4704    0.0000 O   0  0  0  0  0  0  0  0  0  0  0  0
   -6.9988   -3.2612    0.0000 N   0  0  0  0  0  0  0  0  0  0  0  0
    6.0277   -3.0521    0.0000 N   0  0  0  0  0  0  0  0  0  0  0  0
    6.1012   -1.0605    0.0000 C   0  0  0  0  0  0  0  0  0  0  0  0
    2.5727    3.7467    0.0000 C   0  0  0  0  0  0  0  0  0  0  0  0
    1.7919   -1.4170    0.0000 C   0  0  0  0  0  0  0  0  0  0  0  0
    0.9376   -0.0584    0.0000 C   0  0  0  0  0  0  0  0  0  0  0  0
   -0.7900    0.0461    0.0000 C   0  0  0  0  0  0  0  0  0  0  0  0
   -2.6033   -3.0705    0.0000 C   0  0  0  0  0  0  0  0  0  0  0  0
   -1.1279   -3.2918    0.0000 C   0  0  0  0  0  0  0  0  0  0  0  0
    1.2633    2.6587    0.0000 C   0  0  0  0  0  0  0  0  0  0  0  0
   -6.1443   -3.7467    0.0000 C   0  0  0  0  0  0  0  0  0  0  0  0
    5.1546   -2.5235    0.0000 C   0  0  0  0  0  0  0  0  0  0  0  0
   -6.9988   -2.2713    0.0000 C   0  0  0  0  0  0  0  0  0  0  0  0
    6.9126   -2.5788    0.0000 C   0  0  0  0  0  0  0  0  0  0  0  0
   -5.2900   -3.2918    0.0000 C   0  0  0  0  0  0  0  0  0  0  0  0
   -6.1443   -1.7860    0.0000 C   0  0  0  0  0  0  0  0  0  0  0  0
    5.1977   -1.5336    0.0000 C   0  0  0  0  0  0  0  0  0  0  0  0
    6.9437   -1.5769    0.0000 C   0  0  0  0  0  0  0  0  0  0  0  0
  2  1  1  0  0  0  0
  5  3  1  0  0  0  0
  4  1  1  0  0  0  0
  5  2  1  0  0  0  0
  6 20  1  0  0  0  0
  7  4  1  0  0  0  0
  8  6  1  0  0  0  0
  9 24  1  0  0  0  0
 10  7  1  0  0  0  0
 11 13  1  0  0  0  0
 12  8  1  0  0  0  0
 12 13  1  0  0  0  0
 14  2  1  0  0  0  0
 15 23  1  0  0  0  0
 16  1  1  0  0  0  0
 17  4  1  0  0  0  0
 18  3  1  0  0  0  0
 19 17  1  0  0  0  0
 20 14  1  0  0  0  0
 10 21  1  6  0  0  0
 22 10  1  0  0  0  0
 23 26  1  0  0  0  0
 24 16  1  0  0  0  0
 25  9  1  0  0  0  0
  9 26  1  0  0  0  0
 27 18  1  0  0  0  0
 28 11  2  0  0  0  0
 29 11  1  0  0  0  0
 30 15  2  0  0  0  0
 31 43  1  0  0  0  0
 32 44  2  0  0  0  0
 33 15  1  0  0  0  0
 34 21  2  0  0  0  0
  1 35  1  6  0  0  0
  2 36  1  1  0  0  0
  3 37  1  1  0  0  0
  8 38  1  1  0  0  0
  8 39  1  6  0  0  0
 40 21  1  0  0  0  0
 41 45  1  0  0  0  0
 42 47  2  0  0  0  0
 43 46  2  0  0  0  0
 44 48  1  0  0  0  0
 45 29  2  0  0  0  0
 46 29  1  0  0  0  0
 47 33  1  0  0  0  0
 48 33  2  0  0  0  0
  7  9  1  0  0  0  0
 19  5  1  0  0  0  0
 25 22  1  0  0  0  0
  6  3  1  0  0  0  0
 12 27  1  0  0  0  0
 32 42  1  0  0  0  0
 41 31  2  0  0  0  0
M  END
>  <IDNUMBER> (N064-0029)
N064-0029

>  <available> (N064-0029)
19

>  <H_acceptor> (N064-0029)
6

>  <H_donor> (N064-0029)
0

>  <B_rotN> (N064-0029)
8

>  <N_O> (N064-0029)
6

>  <logP> (N064-0029)
8.1

>  <logD> (N064-0029)
9.65

>  <logSw> (N064-0029)
-9.13

>  <PSA> (N064-0029)
78.38

>  <Chiral_centers> (N064-0029)
10

>  <Name> (N064-0029)
5a,5b,8,8,11a-pentamethyl-1-(prop-1-en-2-yl)-3a-[(pyridine-4-carbonyloxy)methyl]-icosahydro-1H-cyclopenta[a]chrysen-9-yl pyridine-4-carboxylate

>  <Smile> (N064-0029)
c1c(C(OCC23C(C4C(CC3)(C3(C)C(C5(CCC(C(C5CC3)(C)C)OC(=O)c3cc[nH0]cc3)C)CC4)C)C(CC2)C(=C)C)=O)cc[nH0]c1

>  <Collection> (N064-0029)
DC

>  <InChI Key> (N064-0029)
BNQSPFCWHDEXMQ-FFSHQUEESA-N

>  <PERCENTSP3> (N064-0029)
66.7

$$$$

  -ISIS-  -- StrEd -- 

 34 38  0  0  0  0  0  0  0  0999 V2000
    1.3026   -0.7836    0.0000 C   0  0  1  0  0  0  0  0  0  0  0  0
    0.4399   -1.2876    0.0000 C   0  0  1  0  0  0  0  0  0  0  0  0
   -1.3326   -1.2876    0.0000 C   0  0  2  0  0  0  0  0  0  0  0  0
    1.3026    0.2413    0.0000 C   0  0  0  0  0  0  0  0  0  0  0  0
   -0.4611   -0.7836    0.0000 C   0  0  0  0  0  0  0  0  0  0  0  0
   -1.3326   -2.3212    0.0000 C   0  0  0  0  0  0  0  0  0  0  0  0
    2.1738    0.7326    0.0000 C   0  0  0  0  0  0  0  0  0  0  0  0
   -2.2250   -2.8252    0.0000 C   0  0  2  0  0  0  0  0  0  0  0  0
    3.0667    0.2413    0.0000 C   0  0  0  0  0  0  0  0  0  0  0  0
    2.4089    1.7360    0.0000 C   0  0  2  0  0  0  0  0  0  0  0  0
    0.4313   -2.3212    0.0000 C   0  0  0  0  0  0  0  0  0  0  0  0
   -3.1050   -2.3212    0.0000 C   0  0  0  0  0  0  0  0  0  0  0  0
    2.1738   -1.2876    0.0000 C   0  0  0  0  0  0  0  0  0  0  0  0
    0.4228    0.7538    0.0000 C   0  0  0  0  0  0  0  0  0  0  0  0
   -2.2250   -0.7836    0.0000 C   0  0  0  0  0  0  0  0  0  0  0  0
   -0.4611    0.2413    0.0000 C   0  0  0  0  0  0  0  0  0  0  0  0
   -0.4611   -2.8252    0.0000 C   0  0  0  0  0  0  0  0  0  0  0  0
    1.7641    2.5048    0.0000 C   0  0  0  0  0  0  0  0  0  0  0  0
    3.3954    1.8301    0.0000 C   0  0  0  0  0  0  0  0  0  0  0  0
   -3.9762   -2.8125    0.0000 N   0  0  0  0  0  0  0  0  0  0  0  0
    3.0667   -0.7836    0.0000 C   0  0  0  0  0  0  0  0  0  0  0  0
    3.7926    0.8779    0.0000 C   0  0  0  0  0  0  0  0  0  0  0  0
   -3.1050   -1.2876    0.0000 C   0  0  0  0  0  0  0  0  0  0  0  0
    3.9891   -1.2578    0.0000 N   0  0  0  0  0  0  0  0  0  0  0  0
    3.9891   -0.2625    0.0000 C   0  0  0  0  0  0  0  0  0  0  0  0
    2.1142    3.4403    0.0000 C   0  0  0  0  0  0  0  0  0  0  0  0
    1.3026   -1.7191    0.0000 C   0  0  0  0  0  0  0  0  0  0  0  0
    0.4313   -0.3736    0.0000 C   0  0  0  0  0  0  0  0  0  0  0  0
   -1.3326   -0.4036    0.0000 C   0  0  0  0  0  0  0  0  0  0  0  0
   -4.8476   -2.3212    0.0000 O   0  0  0  0  0  0  0  0  0  0  0  0
    4.8476   -1.7191    0.0000 O   0  0  0  0  0  0  0  0  0  0  0  0
   -2.8914   -3.4403    0.0000 C   0  0  0  0  0  0  0  0  0  0  0  0
   -1.5590   -3.4403    0.0000 C   0  0  0  0  0  0  0  0  0  0  0  0
    0.7815    2.3427    0.0000 C   0  0  0  0  0  0  0  0  0  0  0  0
  2  1  1  0  0  0  0
  5  3  1  0  0  0  0
  4  1  1  0  0  0  0
  5  2  1  0  0  0  0
  6 17  1  0  0  0  0
  7  4  1  0  0  0  0
  8  6  1  0  0  0  0
  9 21  1  0  0  0  0
 10  7  1  0  0  0  0
 11  2  1  0  0  0  0
 12  8  1  0  0  0  0
 13  1  1  0  0  0  0
 14  4  1  0  0  0  0
 15  3  1  0  0  0  0
 16 14  1  0  0  0  0
 17 11  1  0  0  0  0
 10 18  1  6  0  0  0
 19 10  1  0  0  0  0
 20 12  2  0  0  0  0
 21 13  1  0  0  0  0
 22  9  1  0  0  0  0
 23 15  1  0  0  0  0
 24 25  2  0  0  0  0
  9 25  1  0  0  0  0
 26 18  2  0  0  0  0
  1 27  1  6  0  0  0
  2 28  1  1  0  0  0
  3 29  1  1  0  0  0
 30 20  1  0  0  0  0
 31 24  1  0  0  0  0
  8 32  1  1  0  0  0
  8 33  1  6  0  0  0
 34 18  1  0  0  0  0
  7  9  1  0  0  0  0
 16  5  1  0  0  0  0
 19 22  1  0  0  0  0
  6  3  1  0  0  0  0
 12 23  1  0  0  0  0
M  END
>  <IDNUMBER> (N069-0071)
N069-0071

>  <available> (N069-0071)
773

>  <H_acceptor> (N069-0071)
4

>  <H_donor> (N069-0071)
2

>  <B_rotN> (N069-0071)
4

>  <N_O> (N069-0071)
4

>  <logP> (N069-0071)
6.33

>  <logD> (N069-0071)
9.01

>  <logSw> (N069-0071)
-8.7

>  <PSA> (N069-0071)
65.18

>  <Chiral_centers> (N069-0071)
9

>  <Name> (N069-0071)
(E)-N-{[(9E)-9-(hydroxyimino)-5a,5b,8,8,11a-pentamethyl-1-(prop-1-en-2-yl)-icosahydro-1H-cyclopenta[a]chrysen-3a-yl]methylidene}hydroxylamine

>  <Smile> (N069-0071)
CC(C1C2C3C(CCC2(CC1)C=NO)(C1(C)C(C2(CCC(C(C2CC1)(C)C)=NO)C)CC3)C)=C

>  <Collection> (N069-0071)
DC

>  <InChI Key> (N069-0071)
LCYUMJIXWCZITH-PYAMRPFWSA-N

>  <PERCENTSP3> (N069-0071)
86.7

$$$$

  -ISIS-  -- StrEd -- 

 41 46  0  0  0  0  0  0  0  0999 V2000
   -1.3255   -1.1944    0.0000 C   0  0  2  0  0  0  0  0  0  0  0  0
    1.2581   -0.6928    0.0000 C   0  0  1  0  0  0  0  0  0  0  0  0
    0.4120   -1.1944    0.0000 C   0  0  1  0  0  0  0  0  0  0  0  0
    3.0028    0.3483    0.0000 C   0  0  0  0  0  0  0  0  0  0  0  0
    2.1192    0.8573    0.0000 C   0  0  0  0  0  0  0  0  0  0  0  0
    1.2581    0.3483    0.0000 C   0  0  0  0  0  0  0  0  0  0  0  0
   -3.0553   -1.1944    0.0000 C   0  0  0  0  0  0  0  0  0  0  0  0
   -0.4492   -0.6928    0.0000 C   0  0  0  0  0  0  0  0  0  0  0  0
   -1.3255   -2.1454    0.0000 C   0  0  0  0  0  0  0  0  0  0  0  0
   -2.1942   -2.6846    0.0000 C   0  0  2  0  0  0  0  0  0  0  0  0
   -3.0553   -2.1454    0.0000 C   0  0  0  0  0  0  0  0  0  0  0  0
   -2.1942   -0.6928    0.0000 C   0  0  0  0  0  0  0  0  0  0  0  0
    2.3588    1.8608    0.0000 C   0  0  1  0  0  0  0  0  0  0  0  0
    3.9013   -0.1909    0.0000 C   0  0  0  0  0  0  0  0  0  0  0  0
   -3.9164   -0.7450    0.0000 C   0  0  0  0  0  0  0  0  0  0  0  0
    2.1192   -1.1420    0.0000 C   0  0  0  0  0  0  0  0  0  0  0  0
    0.4120   -2.1454    0.0000 C   0  0  0  0  0  0  0  0  0  0  0  0
    3.0028   -0.6551    0.0000 C   0  0  0  0  0  0  0  0  0  0  0  0
    3.7593    1.0370    0.0000 C   0  0  0  0  0  0  0  0  0  0  0  0
    0.3819    0.8349    0.0000 C   0  0  0  0  0  0  0  0  0  0  0  0
   -0.4492   -2.6471    0.0000 C   0  0  0  0  0  0  0  0  0  0  0  0
   -0.4492    0.3183    0.0000 C   0  0  0  0  0  0  0  0  0  0  0  0
    3.3472    1.9507    0.0000 C   0  0  0  0  0  0  0  0  0  0  0  0
    1.7074    2.5947    0.0000 C   0  0  0  0  0  0  0  0  0  0  0  0
   -4.0811   -2.6846    0.0000 O   0  0  0  0  0  0  0  0  0  0  0  0
    3.9164   -1.1795    0.0000 O   0  0  0  0  0  0  0  0  0  0  0  0
    2.0518    3.5307    0.0000 C   0  0  0  0  0  0  0  0  0  0  0  0
   -1.3255   -0.1909    0.0000 C   0  0  0  0  0  0  0  0  0  0  0  0
   -3.9164    0.2433    0.0000 C   0  0  0  0  0  0  0  0  0  0  0  0
    1.2581   -1.6437    0.0000 C   0  0  0  0  0  0  0  0  0  0  0  0
    0.4120   -0.2957    0.0000 C   0  0  0  0  0  0  0  0  0  0  0  0
    4.7625    0.2957    0.0000 O   0  0  0  0  0  0  0  0  0  0  0  0
   -3.1451   -3.2987    0.0000 C   0  0  0  0  0  0  0  0  0  0  0  0
   -1.6699   -3.5307    0.0000 C   0  0  0  0  0  0  0  0  0  0  0  0
    0.7413    2.4374    0.0000 C   0  0  0  0  0  0  0  0  0  0  0  0
   -3.0553    0.7449    0.0000 C   0  0  0  0  0  0  0  0  0  0  0  0
   -4.7625    0.7300    0.0000 C   0  0  0  0  0  0  0  0  0  0  0  0
    4.7625    1.2841    0.0000 C   0  0  0  0  0  0  0  0  0  0  0  0
   -4.7625    1.7334    0.0000 C   0  0  0  0  0  0  0  0  0  0  0  0
   -3.0553    1.7560    0.0000 C   0  0  0  0  0  0  0  0  0  0  0  0
   -3.8789    2.2353    0.0000 C   0  0  0  0  0  0  0  0  0  0  0  0
  2  3  1  0  0  0  0
  8  3  1  0  0  0  0
  5  4  1  0  0  0  0
  6  5  1  0  0  0  0
  6 20  1  0  0  0  0
  7 12  1  0  0  0  0
  8  1  1  0  0  0  0
  9  1  1  0  0  0  0
 10  9  1  0  0  0  0
 11  7  1  0  0  0  0
 12  1  1  0  0  0  0
 13  5  1  0  0  0  0
  4 14  1  0  0  0  0
 15  7  2  0  0  0  0
 16  2  1  0  0  0  0
 17 21  1  0  0  0  0
 18 16  1  0  0  0  0
 19  4  1  0  0  0  0
 20 22  1  0  0  0  0
 21  9  1  0  0  0  0
 22  8  1  0  0  0  0
 23 13  1  0  0  0  0
 13 24  1  6  0  0  0
 25 11  2  0  0  0  0
 26 14  2  0  0  0  0
 27 24  2  0  0  0  0
  1 28  1  1  0  0  0
 29 15  1  0  0  0  0
  2 30  1  6  0  0  0
  3 31  1  1  0  0  0
 32 14  1  0  0  0  0
 10 33  1  1  0  0  0
 10 34  1  6  0  0  0
 35 24  1  0  0  0  0
 36 29  2  0  0  0  0
 37 29  1  0  0  0  0
 38 32  1  0  0  0  0
 39 37  2  0  0  0  0
 40 36  1  0  0  0  0
 41 39  1  0  0  0  0
 10 11  1  0  0  0  0
 17  3  1  0  0  0  0
  6  2  1  0  0  0  0
  4 18  1  0  0  0  0
 40 41  2  0  0  0  0
 19 23  1  0  0  0  0
M  END
>  <IDNUMBER> (N064-0045)
N064-0045

>  <available> (N064-0045)
100

>  <H_acceptor> (N064-0045)
3

>  <H_donor> (N064-0045)
0

>  <B_rotN> (N064-0045)
4

>  <N_O> (N064-0045)
3

>  <logP> (N064-0045)
8.64

>  <logD> (N064-0045)
9.6

>  <logSw> (N064-0045)
-8.72

>  <PSA> (N064-0045)
43.37

>  <Chiral_centers> (N064-0045)
9

>  <Name> (N064-0045)
methyl (10E)-5a,5b,8,8,11a-pentamethyl-9-oxo-10-(phenylmethylidene)-1-(prop-1-en-2-yl)-icosahydro-1H-cyclopenta[a]chrysene-3a-carboxylate

>  <Smile> (N064-0045)
c1ccc(C=C2CC3(C(CCC4(C5(CCC6(C(=O)OC)CCC(C6C5CCC43)C(=C)C)C)C)C(C2=O)(C)C)C)cc1

>  <Collection> (N064-0045)
DC

>  <InChI Key> (N064-0045)
VXHGZMADPGKYHA-SVLIUUNESA-N

>  <PERCENTSP3> (N064-0045)
68.4

$$$$

  -ISIS-  -- StrEd -- 

 39 43  0  0  0  0  0  0  0  0999 V2000
   -0.9519   -1.3465    0.0000 C   0  0  2  0  0  0  0  0  0  0  0  0
    1.7098   -0.8427    0.0000 C   0  0  1  0  0  0  0  0  0  0  0  0
    0.8135   -1.3465    0.0000 C   0  0  1  0  0  0  0  0  0  0  0  0
    3.4754    0.1917    0.0000 C   0  0  0  0  0  0  0  0  0  0  0  0
    2.5881    0.7088    0.0000 C   0  0  0  0  0  0  0  0  0  0  0  0
    1.7098    0.2052    0.0000 C   0  0  0  0  0  0  0  0  0  0  0  0
   -2.7398   -1.3465    0.0000 C   0  0  0  0  0  0  0  0  0  0  0  0
   -0.0647   -0.8249    0.0000 C   0  0  0  0  0  0  0  0  0  0  0  0
   -0.9519   -2.3630    0.0000 C   0  0  0  0  0  0  0  0  0  0  0  0
   -1.8437   -2.8759    0.0000 C   0  0  2  0  0  0  0  0  0  0  0  0
   -2.7398   -2.3630    0.0000 C   0  0  0  0  0  0  0  0  0  0  0  0
   -1.8437   -0.8249    0.0000 C   0  0  0  0  0  0  0  0  0  0  0  0
    2.7621    1.6897    0.0000 C   0  0  0  0  0  0  0  0  0  0  0  0
    4.4385   -0.3434    0.0000 C   0  0  0  0  0  0  0  0  0  0  0  0
   -3.6182   -0.8873    0.0000 C   0  0  0  0  0  0  0  0  0  0  0  0
   -4.5189    0.5574    0.0000 C   0  0  0  0  0  0  0  0  0  0  0  0
    2.5881   -1.3378    0.0000 C   0  0  0  0  0  0  0  0  0  0  0  0
    0.8135   -2.3630    0.0000 C   0  0  0  0  0  0  0  0  0  0  0  0
    3.4754   -0.8249    0.0000 C   0  0  0  0  0  0  0  0  0  0  0  0
    4.2467    0.8873    0.0000 C   0  0  0  0  0  0  0  0  0  0  0  0
    0.8135    0.7178    0.0000 C   0  0  0  0  0  0  0  0  0  0  0  0
   -0.0647   -2.8759    0.0000 C   0  0  0  0  0  0  0  0  0  0  0  0
   -0.0647    0.2052    0.0000 C   0  0  0  0  0  0  0  0  0  0  0  0
    3.8188    1.8325    0.0000 C   0  0  0  0  0  0  0  0  0  0  0  0
    2.0666    2.3854    0.0000 C   0  0  0  0  0  0  0  0  0  0  0  0
   -3.6182    0.0981    0.0000 N   0  0  0  0  0  0  0  0  0  0  0  0
   -5.3391    0.0133    0.0000 S   0  0  0  0  0  0  0  0  0  0  0  0
   -3.6049   -2.8759    0.0000 O   0  0  0  0  0  0  0  0  0  0  0  0
    5.3391    0.0757    0.0000 O   0  0  0  0  0  0  0  0  0  0  0  0
    2.3117    3.3394    0.0000 C   0  0  0  0  0  0  0  0  0  0  0  0
   -4.5054    1.5739    0.0000 N   0  0  0  0  0  0  0  0  0  0  0  0
   -0.9519   -0.4503    0.0000 C   0  0  0  0  0  0  0  0  0  0  0  0
    1.7098   -1.6987    0.0000 C   0  0  0  0  0  0  0  0  0  0  0  0
    0.8226   -0.4815    0.0000 C   0  0  0  0  0  0  0  0  0  0  0  0
    4.4385   -1.3153    0.0000 O   0  0  0  0  0  0  0  0  0  0  0  0
   -2.5794   -3.3394    0.0000 C   0  0  0  0  0  0  0  0  0  0  0  0
   -1.1035   -3.3037    0.0000 C   0  0  0  0  0  0  0  0  0  0  0  0
    1.1124    2.1400    0.0000 C   0  0  0  0  0  0  0  0  0  0  0  0
    5.2945   -1.8058    0.0000 C   0  0  0  0  0  0  0  0  0  0  0  0
  2  3  1  0  0  0  0
  8  3  1  0  0  0  0
  5  4  1  0  0  0  0
  6  5  1  0  0  0  0
  6 21  1  0  0  0  0
  7 12  1  0  0  0  0
  8  1  1  0  0  0  0
  9  1  1  0  0  0  0
 10  9  1  0  0  0  0
 11  7  1  0  0  0  0
 12  1  1  0  0  0  0
 13  5  1  0  0  0  0
  4 14  1  0  0  0  0
 15  7  2  0  0  0  0
 16 26  1  0  0  0  0
 17  2  1  0  0  0  0
 18 22  1  0  0  0  0
 19 17  1  0  0  0  0
 20  4  1  0  0  0  0
 21 23  1  0  0  0  0
 22  9  1  0  0  0  0
 23  8  1  0  0  0  0
 24 13  1  0  0  0  0
 13 25  1  0  0  0  0
 26 15  1  0  0  0  0
 27 16  2  0  0  0  0
 28 11  2  0  0  0  0
 29 14  2  0  0  0  0
 30 25  2  0  0  0  0
 31 16  1  0  0  0  0
  1 32  1  1  0  0  0
  2 33  1  6  0  0  0
  3 34  1  1  0  0  0
 35 14  1  0  0  0  0
 10 36  1  1  0  0  0
 10 37  1  6  0  0  0
 38 25  1  0  0  0  0
 39 35  1  0  0  0  0
 11 10  1  0  0  0  0
 18  3  1  0  0  0  0
  2  6  1  0  0  0  0
 19  4  1  0  0  0  0
 20 24  1  0  0  0  0
M  END
>  <IDNUMBER> (N066-0066)
N066-0066

>  <available> (N066-0066)
32

>  <H_acceptor> (N066-0066)
4

>  <H_donor> (N066-0066)
3

>  <B_rotN> (N066-0066)
5

>  <N_O> (N066-0066)
5

>  <logP> (N066-0066)
7.46

>  <logD> (N066-0066)
7.19

>  <logSw> (N066-0066)
-7.45

>  <PSA> (N066-0066)
113.51

>  <Chiral_centers> (N066-0066)
9

>  <Name> (N066-0066)
methyl (10E)-10-[(carbamothioylamino)methylidene]-5a,5b,8,8,11a-pentamethyl-9-oxo-1-(prop-1-en-2-yl)-icosahydro-1H-cyclopenta[a]chrysene-3a-carboxylate

>  <Smile> (N066-0066)
COC(C12C(C3C(C4(CCC5C(CC(C(C5(C)C)=O)=CNC(=S)N)(C4CC3)C)C)(C)CC2)C(CC1)C(=C)C)=O

>  <Collection> (N066-0066)
DC

>  <InChI Key> (N066-0066)
MOWARHWKOOUHNL-YGCHVJIVSA-N

>  <PERCENTSP3> (N066-0066)
78.8

$$$$

  -ISIS-  -- StrEd -- 

 39 44  0  0  0  0  0  0  0  0999 V2000
   -0.5477   -1.2835    0.0000 C   0  0  2  0  0  0  0  0  0  0  0  0
    2.0916   -0.7866    0.0000 C   0  0  1  0  0  0  0  0  0  0  0  0
    1.2232   -1.2835    0.0000 C   0  0  1  0  0  0  0  0  0  0  0  0
    3.8529    0.2317    0.0000 C   0  0  0  0  0  0  0  0  0  0  0  0
    2.9602    0.7287    0.0000 C   0  0  0  0  0  0  0  0  0  0  0  0
    2.0916    0.2317    0.0000 C   0  0  0  0  0  0  0  0  0  0  0  0
   -2.3235   -1.2835    0.0000 C   0  0  0  0  0  0  0  0  0  0  0  0
    0.3208   -0.7866    0.0000 C   0  0  0  0  0  0  0  0  0  0  0  0
   -0.5477   -2.3257    0.0000 C   0  0  0  0  0  0  0  0  0  0  0  0
   -1.4404   -2.8227    0.0000 C   0  0  1  0  0  0  0  0  0  0  0  0
   -2.3235   -2.3257    0.0000 C   0  0  0  0  0  0  0  0  0  0  0  0
   -1.4404   -0.7866    0.0000 C   0  0  0  0  0  0  0  0  0  0  0  0
    3.1919    1.7370    0.0000 C   0  0  1  0  0  0  0  0  0  0  0  0
   -3.1678   -0.7769    0.0000 C   0  0  0  0  0  0  0  0  0  0  0  0
    4.7650   -0.2655    0.0000 C   0  0  0  0  0  0  0  0  0  0  0  0
    2.9602   -1.2835    0.0000 C   0  0  0  0  0  0  0  0  0  0  0  0
    1.2135   -2.3257    0.0000 C   0  0  0  0  0  0  0  0  0  0  0  0
    3.8529   -0.7866    0.0000 C   0  0  0  0  0  0  0  0  0  0  0  0
    4.5719    0.8684    0.0000 C   0  0  0  0  0  0  0  0  0  0  0  0
    1.1990    0.7528    0.0000 C   0  0  0  0  0  0  0  0  0  0  0  0
    0.3208   -2.8227    0.0000 C   0  0  0  0  0  0  0  0  0  0  0  0
    0.3208    0.2317    0.0000 C   0  0  0  0  0  0  0  0  0  0  0  0
   -4.0219   -1.2739    0.0000 C   0  0  0  0  0  0  0  0  0  0  0  0
    4.1762    1.8288    0.0000 C   0  0  0  0  0  0  0  0  0  0  0  0
    2.5453    2.5042    0.0000 C   0  0  0  0  0  0  0  0  0  0  0  0
   -4.1376   -2.2680    0.0000 O   0  0  0  0  0  0  0  0  0  0  0  0
   -3.1678   -2.8373    0.0000 O   0  0  0  0  0  0  0  0  0  0  0  0
    4.8228   -1.2594    0.0000 O   0  0  0  0  0  0  0  0  0  0  0  0
   -4.9388   -0.8783    0.0000 C   0  0  0  0  0  0  0  0  0  0  0  0
   -5.0981   -2.5139    0.0000 C   0  0  0  0  0  0  0  0  0  0  0  0
   -5.6335   -1.6550    0.0000 C   0  0  0  0  0  0  0  0  0  0  0  0
    2.8928    3.4403    0.0000 C   0  0  0  0  0  0  0  0  0  0  0  0
   -0.5477   -0.4054    0.0000 C   0  0  0  0  0  0  0  0  0  0  0  0
    2.0916   -1.7228    0.0000 C   0  0  0  0  0  0  0  0  0  0  0  0
    5.6335    0.2317    0.0000 O   0  0  0  0  0  0  0  0  0  0  0  0
    1.2135   -0.3811    0.0000 C   0  0  0  0  0  0  0  0  0  0  0  0
   -0.7697   -3.4403    0.0000 C   0  0  0  0  0  0  0  0  0  0  0  0
   -2.1013   -3.4403    0.0000 C   0  0  0  0  0  0  0  0  0  0  0  0
    1.5610    2.3404    0.0000 C   0  0  0  0  0  0  0  0  0  0  0  0
  2  3  1  0  0  0  0
  8  3  1  0  0  0  0
  5  4  1  0  0  0  0
  6  5  1  0  0  0  0
  6 20  1  0  0  0  0
  7 12  1  0  0  0  0
  8  1  1  0  0  0  0
  9  1  1  0  0  0  0
 10  9  1  0  0  0  0
 11  7  1  0  0  0  0
 12  1  1  0  0  0  0
 13  5  1  0  0  0  0
 14  7  2  0  0  0  0
  4 15  1  0  0  0  0
 16  2  1  0  0  0  0
 17 21  1  0  0  0  0
 18 16  1  0  0  0  0
 19  4  1  0  0  0  0
 20 22  1  0  0  0  0
 21  9  1  0  0  0  0
 22  8  1  0  0  0  0
 23 14  1  0  0  0  0
 24 13  1  0  0  0  0
 13 25  1  6  0  0  0
 26 23  1  0  0  0  0
 27 11  2  0  0  0  0
 28 15  2  0  0  0  0
 29 23  2  0  0  0  0
 30 26  1  0  0  0  0
 31 29  1  0  0  0  0
 32 25  2  0  0  0  0
  1 33  1  1  0  0  0
  2 34  1  6  0  0  0
 35 15  1  0  0  0  0
  3 36  1  1  0  0  0
 10 37  1  6  0  0  0
 10 38  1  1  0  0  0
 39 25  1  0  0  0  0
 10 11  1  0  0  0  0
 17  3  1  0  0  0  0
  6  2  1  0  0  0  0
  4 18  1  0  0  0  0
 31 30  2  0  0  0  0
 24 19  1  0  0  0  0
M  END
>  <IDNUMBER> (N069-0081)
N069-0081

>  <available> (N069-0081)
37

>  <H_acceptor> (N069-0081)
4

>  <H_donor> (N069-0081)
1

>  <B_rotN> (N069-0081)
4

>  <N_O> (N069-0081)
4

>  <logP> (N069-0081)
7.13

>  <logD> (N069-0081)
7.32

>  <logSw> (N069-0081)
-6.33

>  <PSA> (N069-0081)
67.51

>  <Chiral_centers> (N069-0081)
9

>  <Name> (N069-0081)
(10Z)-10-[(furan-2-yl)methylidene]-5a,5b,8,8,11a-pentamethyl-9-oxo-1-(prop-1-en-2-yl)-icosahydro-1H-cyclopenta[a]chrysene-3a-carboxylic acid

>  <Smile> (N069-0081)
CC(C1C2C(CCC3(C4(CCC5C(CC(C(C5(C)C)=O)=CC5OC=CC=5)(C4CCC23)C)C)C)(C(=O)O)CC1)=C

>  <Collection> (N069-0081)
DC

>  <InChI Key> (N069-0081)
OAZAZBRWAMEGCZ-GLKCFROESA-N

>  <PERCENTSP3> (N069-0081)
71.4

$$$$

  -ISIS-  -- StrEd -- 

 35 40  0  0  0  0  0  0  0  0999 V2000
   -1.7543   -0.4341    0.0000 C   0  0  0  0  0  0  0  0  0  0  0  0
   -2.5916   -0.9410    0.0000 C   0  0  0  0  0  0  0  0  0  0  0  0
   -0.0926   -0.4341    0.0000 C   0  0  2  0  0  0  0  0  0  0  0  0
   -0.0926    0.5179    0.0000 C   0  0  0  0  0  0  0  0  0  0  0  0
   -0.9212   -0.9410    0.0000 C   0  0  0  0  0  0  0  0  0  0  0  0
   -2.5916    0.2138    0.0000 C   0  0  0  0  0  0  0  0  0  0  0  0
   -2.5916   -1.8709    0.0000 C   0  0  0  0  0  0  0  0  0  0  0  0
    0.8067    0.8045    0.0000 C   0  0  0  0  0  0  0  0  0  0  0  0
    1.3002    1.8402    0.0000 C   0  0  2  0  0  0  0  0  0  0  0  0
    2.3184    1.4700    0.0000 O   0  0  0  0  0  0  0  0  0  0  0  0
    0.8067   -0.7073    0.0000 C   0  0  0  0  0  0  0  0  0  0  0  0
   -3.4466   -2.3472    0.0000 C   0  0  2  0  0  0  0  0  0  0  0  0
    1.3354    0.0419    0.0000 C   0  0  0  0  0  0  0  0  0  0  0  0
   -1.7543   -2.3472    0.0000 C   0  0  2  0  0  0  0  0  0  0  0  0
   -0.9212   -1.8709    0.0000 C   0  0  0  0  0  0  0  0  0  0  0  0
   -1.7543    0.5179    0.0000 C   0  0  0  0  0  0  0  0  0  0  0  0
   -0.9212    1.0158    0.0000 C   0  0  0  0  0  0  0  0  0  0  0  0
   -3.4466   -0.4341    0.0000 C   0  0  0  0  0  0  0  0  0  0  0  0
    2.9399    2.3823    0.0000 C   0  0  0  0  0  0  0  0  0  0  0  0
    3.9800    2.3823    0.0000 C   0  0  0  0  0  0  0  0  0  0  0  0
    1.3002    2.8671    0.0000 C   0  0  0  0  0  0  0  0  0  0  0  0
   -4.2092   -1.8709    0.0000 C   0  0  0  0  0  0  0  0  0  0  0  0
   -4.2092   -0.9410    0.0000 C   0  0  0  0  0  0  0  0  0  0  0  0
    2.3184    3.1976    0.0000 C   0  0  0  0  0  0  0  0  0  0  0  0
   -0.0926   -1.3332    0.0000 C   0  0  0  0  0  0  0  0  0  0  0  0
   -0.0926    1.6419    0.0000 C   0  0  0  0  0  0  0  0  0  0  0  0
    2.3714    0.0419    0.0000 O   0  0  0  0  0  0  0  0  0  0  0  0
   -1.7543   -3.4490    0.0000 O   0  0  0  0  0  0  0  0  0  0  0  0
    0.4981    2.3823    0.0000 C   0  0  0  0  0  0  0  0  0  0  0  0
    5.0555    2.3823    0.0000 O   0  0  0  0  0  0  0  0  0  0  0  0
   -4.0063   -3.2155    0.0000 C   0  0  0  0  0  0  0  0  0  0  0  0
   -3.0676   -3.1845    0.0000 C   0  0  0  0  0  0  0  0  0  0  0  0
   -5.0555   -2.3691    0.0000 O   0  0  0  0  0  0  0  0  0  0  0  0
    3.9800    1.2936    0.0000 C   0  0  0  0  0  0  0  0  0  0  0  0
    3.9800    3.4490    0.0000 C   0  0  0  0  0  0  0  0  0  0  0  0
  2  1  1  0  0  0  0
  5  3  1  0  0  0  0
  4 17  1  0  0  0  0
  5  1  1  0  0  0  0
  1  6  1  0  0  0  0
  7  2  1  0  0  0  0
  8  4  1  0  0  0  0
  8  9  1  0  0  0  0
  9 10  1  6  0  0  0
 11  3  1  0  0  0  0
 12  7  1  0  0  0  0
 13 11  1  0  0  0  0
 14 15  1  0  0  0  0
 15  5  1  0  0  0  0
 16  1  1  0  0  0  0
 17 16  1  0  0  0  0
 18  2  1  0  0  0  0
 19 10  1  0  0  0  0
 20 19  1  0  0  0  0
 21  9  1  0  0  0  0
 22 23  1  0  0  0  0
 23 18  1  0  0  0  0
 24 21  1  0  0  0  0
  3 25  1  6  0  0  0
  4 26  1  0  0  0  0
 13 27  1  0  0  0  0
 14 28  1  6  0  0  0
  9 29  1  6  0  0  0
 30 20  1  0  0  0  0
 31 12  1  0  0  0  0
 12 32  1  6  0  0  0
 22 33  1  0  0  0  0
 34 20  1  0  0  0  0
 35 20  1  0  0  0  0
  2  6  1  0  0  0  0
  4  3  1  0  0  0  0
  7 14  1  0  0  0  0
  8 13  1  0  0  0  0
 22 12  1  0  0  0  0
 24 19  1  0  0  0  0
M  END
>  <IDNUMBER> (N039-0046)
N039-0046

>  <available> (N039-0046)
209

>  <H_acceptor> (N039-0046)
5

>  <H_donor> (N039-0046)
4

>  <B_rotN> (N039-0046)
6

>  <N_O> (N039-0046)
5

>  <logP> (N039-0046)
2.64

>  <logD> (N039-0046)
4.37

>  <logSw> (N039-0046)
-7.71

>  <PSA> (N039-0046)
90.15

>  <Chiral_centers> (N039-0046)
12

>  <Name> (N039-0046)
15-[5-(2-HYDROXYPROPAN-2-YL)-2-METHYLOXOLAN-2-YL]-7,7,12,16-TETRAMETHYLPENTACYCLO[9.7.0.0^(1,3).0^(3,8).0^(12,16)]OCTADECANE-6,9,14-TRIOL

>  <Smile> (N039-0046)
CC(C1OC(C2C3(C(C)(CC2O)C2C4(CC3)CC34C(C(C2)O)C(C)(C)C(CC3)O)C)(C)CC1)(C)O

>  <Collection> (N039-0046)
DC

>  <InChI Key> (N039-0046)
WENNXORDXYGDTP-BGZSFLTKSA-N

>  <PERCENTSP3> (N039-0046)
100

$$$$

  -ISIS-  -- StrEd -- 

 83 92  0  0  0  0  0  0  0  0999 V2000
    0.3127    2.4707    0.0000 C   0  0  0  0  0  0  0  0  0  0  0  0
    0.3127    3.1509    0.0000 C   0  0  0  0  0  0  0  0  0  0  0  0
   -0.3263    2.0788    0.0000 C   0  0  0  0  0  0  0  0  0  0  0  0
   -2.5529   -3.9618    0.0000 C   0  0  0  0  0  0  0  0  0  0  0  0
    1.5223    3.1509    0.0000 C   0  0  0  0  0  0  0  0  0  0  0  0
   -4.2230    1.1718    0.0000 C   0  0  0  0  0  0  0  0  0  0  0  0
   -1.5841    2.0788    0.0000 C   0  0  0  0  0  0  0  0  0  0  0  0
   -4.2230   -4.7039    0.0000 C   0  0  0  0  0  0  0  0  0  0  0  0
    3.1507    3.9756    0.0000 C   0  0  0  0  0  0  0  0  0  0  0  0
    0.9105    3.4809    0.0000 C   0  0  0  0  0  0  0  0  0  0  0  0
   -3.5838   -3.9618    0.0000 C   0  0  0  0  0  0  0  0  0  0  0  0
    3.9756    4.9788    0.0000 C   0  0  0  0  0  0  0  0  0  0  0  0
   -0.9517    2.4707    0.0000 C   0  0  0  0  0  0  0  0  0  0  0  0
    5.4598   -2.0720    0.0000 C   0  0  0  0  0  0  0  0  0  0  0  0
    2.3744    2.8005    0.0000 C   0  0  0  0  0  0  0  0  0  0  0  0
   -1.8795   -1.2679    0.0000 C   0  0  0  0  0  0  0  0  0  0  0  0
   -1.5841    1.3918    0.0000 C   0  0  0  0  0  0  0  0  0  0  0  0
    5.4255    4.9376    0.0000 C   0  0  0  0  0  0  0  0  0  0  0  0
    3.9620   -2.0720    0.0000 C   0  0  0  0  0  0  0  0  0  0  0  0
   -2.5735   -2.1475    0.0000 C   0  0  0  0  0  0  0  0  0  0  0  0
   -3.5015    2.0102    0.0000 C   0  0  0  0  0  0  0  0  0  0  0  0
   -4.2230   -1.0204    0.0000 O   0  0  0  0  0  0  0  0  0  0  0  0
    6.2228   -1.0754    0.0000 C   0  0  0  0  0  0  0  0  0  0  0  0
    3.9620    2.9035    0.0000 O   0  0  0  0  0  0  0  0  0  0  0  0
   -2.5529   -3.1439    0.0000 O   0  0  0  0  0  0  0  0  0  0  0  0
   -3.6732   -5.4117    0.0000 O   0  0  0  0  0  0  0  0  0  0  0  0
    5.4598   -0.0033    0.0000 O   0  0  0  0  0  0  0  0  0  0  0  0
   -2.2095    1.0205    0.0000 C   0  0  0  0  0  0  0  0  0  0  0  0
    3.1507    3.2473    0.0000 O   0  0  0  0  0  0  0  0  0  0  0  0
   -1.9139   -4.6284    0.0000 C   0  0  0  0  0  0  0  0  0  0  0  0
    6.1886    3.9276    0.0000 C   0  0  0  0  0  0  0  0  0  0  0  0
    3.1783   -1.0754    0.0000 C   0  0  0  0  0  0  0  0  0  0  0  0
    5.3981    2.9035    0.0000 C   0  0  0  0  0  0  0  0  0  0  0  0
   -5.5220    1.1718    0.0000 C   0  0  0  0  0  0  0  0  0  0  0  0
   -0.3263    3.5359    0.0000 C   0  0  0  0  0  0  0  0  0  0  0  0
   -0.6425   -1.2679    0.0000 C   0  0  0  0  0  0  0  0  0  0  0  0
    3.9620   -0.0033    0.0000 C   0  0  0  0  0  0  0  0  0  0  0  0
   -2.7660    1.3918    0.0000 C   0  0  0  0  0  0  0  0  0  0  0  0
   -2.4911   -5.4117    0.0000 C   0  0  0  0  0  0  0  0  0  0  0  0
   -1.8315   -3.0821    0.0000 O   0  0  0  0  0  0  0  0  0  0  0  0
   -4.1887    2.9584    0.0000 O   0  0  0  0  0  0  0  0  0  0  0  0
   -3.5015    1.0067    0.0000 O   0  0  0  0  0  0  0  0  0  0  0  0
    0.9105    2.0788    0.0000 C   0  0  0  0  0  0  0  0  0  0  0  0
   -0.3263    1.3918    0.0000 C   0  0  0  0  0  0  0  0  0  0  0  0
   -0.9517    3.1647    0.0000 C   0  0  0  0  0  0  0  0  0  0  0  0
    1.5223    2.4430    0.0000 C   0  0  0  0  0  0  0  0  0  0  0  0
   -2.2095    2.4707    0.0000 C   0  0  0  0  0  0  0  0  0  0  0  0
   -0.9517    1.0205    0.0000 C   0  0  0  0  0  0  0  0  0  0  0  0
    2.1270    3.4809    0.0000 C   0  0  0  0  0  0  0  0  0  0  0  0
   -6.2228    2.0788    0.0000 C   0  0  0  0  0  0  0  0  0  0  0  0
    0.1202   -2.1475    0.0000 C   0  0  0  0  0  0  0  0  0  0  0  0
    0.9105    4.2026    0.0000 C   0  0  0  0  0  0  0  0  0  0  0  0
    6.2228    1.4536    0.0000 O   0  0  0  0  0  0  0  0  0  0  0  0
    5.4255    2.1957    0.0000 C   0  0  0  0  0  0  0  0  0  0  0  0
    2.3744    1.8865    0.0000 O   0  0  0  0  0  0  0  0  0  0  0  0
   -0.6425   -3.0821    0.0000 C   0  0  0  0  0  0  0  0  0  0  0  0
   -5.5220    2.9584    0.0000 C   0  0  0  0  0  0  0  0  0  0  0  0
    1.5223    4.5322    0.0000 C   0  0  0  0  0  0  0  0  0  0  0  0
   -2.7660    2.0788    0.0000 C   0  0  0  0  0  0  0  0  0  0  0  0
   -3.5838   -3.1851    0.0000 O   0  0  0  0  0  0  0  0  0  0  0  0
    3.9620    5.7213    0.0000 O   0  0  0  0  0  0  0  0  0  0  0  0
    5.4598   -2.9790    0.0000 O   0  0  0  0  0  0  0  0  0  0  0  0
   -1.8795   -0.5256    0.0000 O   0  0  0  0  0  0  0  0  0  0  0  0
    5.4598    3.9550    0.0000 O   0  0  0  0  0  0  0  0  0  0  0  0
    3.9620   -1.0204    0.0000 O   0  0  0  0  0  0  0  0  0  0  0  0
    2.1270    4.2026    0.0000 C   0  0  0  0  0  0  0  0  0  0  0  0
   -1.9139   -5.7213    0.0000 O   0  0  0  0  0  0  0  0  0  0  0  0
    6.1886    4.8552    0.0000 O   0  0  0  0  0  0  0  0  0  0  0  0
    3.1783   -2.0720    0.0000 O   0  0  0  0  0  0  0  0  0  0  0  0
   -5.5220    2.0102    0.0000 O   0  0  0  0  0  0  0  0  0  0  0  0
   -0.6425   -2.1132    0.0000 O   0  0  0  0  0  0  0  0  0  0  0  0
    0.3127    1.7834    0.0000 C   0  0  0  0  0  0  0  0  0  0  0  0
   -0.3127    2.7935    0.0000 C   0  0  0  0  0  0  0  0  0  0  0  0
   -1.5841    2.9584    0.0000 C   0  0  0  0  0  0  0  0  0  0  0  0
    0.0653   -1.1028    0.0000 O   0  0  0  0  0  0  0  0  0  0  0  0
   -6.2228    3.0478    0.0000 O   0  0  0  0  0  0  0  0  0  0  0  0
    3.9620    0.6493    0.0000 C   0  0  0  0  0  0  0  0  0  0  0  0
   -2.6011    0.4090    0.0000 C   0  0  0  0  0  0  0  0  0  0  0  0
   -1.9345    0.4090    0.0000 C   0  0  0  0  0  0  0  0  0  0  0  0
    3.1507    1.1030    0.0000 O   0  0  0  0  0  0  0  0  0  0  0  0
   -2.5187   -4.5184    0.0000 C   0  0  0  0  0  0  0  0  0  0  0  0
    2.2301    4.9995    0.0000 C   0  0  0  0  0  0  0  0  0  0  0  0
    0.8624    4.9788    0.0000 C   0  0  0  0  0  0  0  0  0  0  0  0
  2  1  1  0  0  0  0
  3  1  1  0  0  0  0
  4 11  1  0  0  0  0
  5 46  1  0  0  0  0
  6 21  1  0  0  0  0
 13  7  1  0  0  0  0
  8 22  1  0  0  0  0
  9 29  1  0  0  0  0
 10  2  1  0  0  0  0
 11  8  1  0  0  0  0
 12  9  1  0  0  0  0
 13  3  1  0  0  0  0
 14 23  1  0  0  0  0
  5 15  1  0  0  0  0
 16 20  1  0  0  0  0
 17 48  1  0  0  0  0
 18 12  1  0  0  0  0
 19 14  1  0  0  0  0
 20 25  1  0  0  0  0
 21 42  1  0  0  0  0
  6 22  1  0  0  0  0
 23 53  1  0  0  0  0
 24  9  1  0  0  0  0
  4 25  1  0  0  0  0
 26  8  1  0  0  0  0
 27 23  1  0  0  0  0
 28 17  1  0  0  0  0
 29 15  1  0  0  0  0
 30 39  1  0  0  0  0
 31 33  1  0  0  0  0
 32 37  1  0  0  0  0
 33 24  1  0  0  0  0
 34  6  1  0  0  0  0
 35  2  2  0  0  0  0
 36 16  1  0  0  0  0
 37 27  1  0  0  0  0
 38 28  1  0  0  0  0
 39 26  1  0  0  0  0
 40 20  1  0  0  0  0
 41 21  1  0  0  0  0
 38 42  1  0  0  0  0
 43  1  1  0  0  0  0
 44  3  1  0  0  0  0
 45 13  1  0  0  0  0
 46 43  1  0  0  0  0
 47  7  1  0  0  0  0
 48 44  1  0  0  0  0
 49  5  1  0  0  0  0
 50 57  1  0  0  0  0
 51 56  1  0  0  0  0
 52 10  1  0  0  0  0
 53 54  1  0  0  0  0
 33 54  1  0  0  0  0
 55 15  2  0  0  0  0
 56 40  1  0  0  0  0
 57 41  1  0  0  0  0
 58 52  1  0  0  0  0
 59 47  1  0  0  0  0
 11 60  1  0  0  0  0
 12 61  1  0  0  0  0
 14 62  1  0  0  0  0
 16 63  1  0  0  0  0
 18 64  1  0  0  0  0
 19 65  1  0  0  0  0
 66 49  1  0  0  0  0
 30 67  1  0  0  0  0
 31 68  1  0  0  0  0
 32 69  1  0  0  0  0
 34 70  1  0  0  0  0
 36 71  1  0  0  0  0
  1 72  1  0  0  0  0
  3 73  1  0  0  0  0
  7 74  1  0  0  0  0
 51 75  1  0  0  0  0
 50 76  1  0  0  0  0
 37 77  1  0  0  0  0
 28 78  1  0  0  0  0
 79 28  1  0  0  0  0
 80 77  1  0  0  0  0
 39 81  1  0  0  0  0
 58 82  1  0  0  0  0
 83 58  1  0  0  0  0
 10  5  1  0  0  0  0
 35 45  1  0  0  0  0
 17  7  1  0  0  0  0
 58 66  1  0  0  0  0
 38 59  1  0  0  0  0
 18 31  1  0  0  0  0
 50 34  1  0  0  0  0
 19 32  1  0  0  0  0
  4 30  1  0  0  0  0
 51 36  1  0  0  0  0
M  END
>  <IDNUMBER> (1554-0035)
1554-0035

>  <available> (1554-0035)
319

>  <H_acceptor> (1554-0035)
25

>  <H_donor> (1554-0035)
14

>  <B_rotN> (1554-0035)
27

>  <N_O> (1554-0035)
25

>  <logP> (1554-0035)
-0.56

>  <logD> (1554-0035)
-4.73

>  <logSw> (1554-0035)
-5.12

>  <PSA> (1554-0035)
392.59

>  <Chiral_centers> (1554-0035)
31

>  <Name> (1554-0035)
3,4,5-trihydroxy-6-({[3,4,5-trihydroxy-6-(hydroxymethyl)oxan-2-yl]oxy}methyl)oxan-2-yl 10-{[3-({3,5-dihydroxy-6-methyl-4-[(3,4,5-trihydroxyoxan-2-yl)oxy]oxan-2-yl}oxy)-4,5-dihydroxyoxan-2-yl]oxy}-2,2,
6a,6b,9,9,12a-heptamethyl-1,2,3,4,4a,5,6,6a,6b,7,8,8a,9,10,11,12,12a,12b,13,14b-icosahydropicene-4a-carboxylate

>  <Smile> (1554-0035)
CC1(CC2C3C(C)(CCC2(C(OC2C(C(O)C(C(O2)COC2C(O)C(C(C(O2)CO)O)O)O)O)=O)CC1)C1(CCC2C(C)(CCC(C2(C)C)OC2C(OC4C(C(OC5C(O)C(C(CO5)O)O)C(C(O4)C)O)O)C(C(CO2)O)O)C1CC=3)C)C

>  <Collection> (1554-0035)
DC

>  <InChI Key> (1554-0035)
BGKLFKHHSFCDKC-UHFFFAOYSA-N

>  <PERCENTSP3> (1554-0035)
94.8

$$$$

  -ISIS-  -- StrEd -- 

 53 59  0  0  0  0  0  0  0  0999 V2000
    3.7852   -0.1630    0.0000 C   0  0  0  0  0  0  0  0  0  0  0  0
    1.6140   -0.6199    0.0000 C   0  0  0  0  0  0  0  0  0  0  0  0
    3.7852    0.6600    0.0000 C   0  0  0  0  0  0  0  0  0  0  0  0
   -3.2939    0.2885    0.0000 C   0  0  0  0  0  0  0  0  0  0  0  0
   -0.5230   -3.0025    0.0000 C   0  0  0  0  0  0  0  0  0  0  0  0
   -3.2939   -3.0025    0.0000 C   0  0  0  0  0  0  0  0  0  0  0  0
   -4.0768    1.2486    0.0000 C   0  0  0  0  0  0  0  0  0  0  0  0
    1.6140   -1.4254    0.0000 C   0  0  0  0  0  0  0  0  0  0  0  0
   -1.2371   -3.8939    0.0000 C   0  0  0  0  0  0  0  0  0  0  0  0
   -2.5798   -3.8939    0.0000 C   0  0  0  0  0  0  0  0  0  0  0  0
   -5.5566    1.2486    0.0000 C   0  0  0  0  0  0  0  0  0  0  0  0
    2.3568   -0.1630    0.0000 C   0  0  2  0  0  0  0  0  0  0  0  0
    3.0711   -0.6199    0.0000 C   0  0  1  0  0  0  0  0  0  0  0  0
   -4.0768   -0.7286    0.0000 O   0  0  0  0  0  0  0  0  0  0  0  0
   -3.2939   -1.4657    0.0000 O   0  0  0  0  0  0  0  0  0  0  0  0
   -1.2371   -2.0827    0.0000 O   0  0  0  0  0  0  0  0  0  0  0  0
   -6.2537    0.2885    0.0000 C   0  0  0  0  0  0  0  0  0  0  0  0
    4.5794    0.9056    0.0000 C   0  0  0  0  0  0  0  0  0  0  0  0
   -5.5566   -0.7286    0.0000 C   0  0  0  0  0  0  0  0  0  0  0  0
    4.9224    1.8255    0.0000 C   0  0  0  0  0  0  0  0  0  0  0  0
   -2.5798   -2.0827    0.0000 C   0  0  0  0  0  0  0  0  0  0  0  0
    4.5794   -0.4256    0.0000 C   0  0  0  0  0  0  0  0  0  0  0  0
    3.0711    1.0713    0.0000 C   0  0  0  0  0  0  0  0  0  0  0  0
    4.2767    2.5796    0.0000 C   0  0  0  0  0  0  0  0  0  0  0  0
    5.5908    3.7282    0.0000 C   0  0  0  0  0  0  0  0  0  0  0  0
    5.9222    2.0027    0.0000 C   0  0  0  0  0  0  0  0  0  0  0  0
    4.6308    3.5226    0.0000 O   0  0  0  0  0  0  0  0  0  0  0  0
    0.8771   -1.8368    0.0000 C   0  0  0  0  0  0  0  0  0  0  0  0
    0.8771   -0.1630    0.0000 C   0  0  0  0  0  0  0  0  0  0  0  0
    2.3568    0.6600    0.0000 C   0  0  0  0  0  0  0  0  0  0  0  0
   -0.5230   -1.8655    0.0000 O   0  0  0  0  0  0  0  0  0  0  0  0
    5.0309    0.2486    0.0000 C   0  0  0  0  0  0  0  0  0  0  0  0
    3.0711   -1.4254    0.0000 C   0  0  0  0  0  0  0  0  0  0  0  0
    6.2537    2.9455    0.0000 C   0  0  0  0  0  0  0  0  0  0  0  0
    2.3568   -1.8368    0.0000 C   0  0  0  0  0  0  0  0  0  0  0  0
    1.6027    0.3971    0.0000 C   0  0  0  0  0  0  0  0  0  0  0  0
    0.2027   -1.4254    0.0000 C   0  0  0  0  0  0  0  0  0  0  0  0
    5.9222    4.6881    0.0000 O   0  0  0  0  0  0  0  0  0  0  0  0
    3.7968   -1.1513    0.0000 O   0  0  0  0  0  0  0  0  0  0  0  0
   -1.2371   -4.6652    0.0000 O   0  0  0  0  0  0  0  0  0  0  0  0
   -4.0768    2.1227    0.0000 O   0  0  0  0  0  0  0  0  0  0  0  0
    1.6140   -2.5228    0.0000 O   0  0  0  0  0  0  0  0  0  0  0  0
    0.7399    0.8884    0.0000 O   0  0  0  0  0  0  0  0  0  0  0  0
   -2.5798   -4.6881    0.0000 O   0  0  0  0  0  0  0  0  0  0  0  0
   -5.5566    0.3000    0.0000 O   0  0  0  0  0  0  0  0  0  0  0  0
   -6.2537    1.6883    0.0000 O   0  0  0  0  0  0  0  0  0  0  0  0
    0.2027   -0.6199    0.0000 C   0  0  0  0  0  0  0  0  0  0  0  0
    3.7968    1.6312    0.0000 C   0  0  0  0  0  0  0  0  0  0  0  0
   -5.5566   -1.6027    0.0000 C   0  0  0  0  0  0  0  0  0  0  0  0
   -4.7737   -2.1112    0.0000 O   0  0  0  0  0  0  0  0  0  0  0  0
   -2.5798   -2.8255    0.0000 C   0  0  0  0  0  0  0  0  0  0  0  0
    3.0711    0.1343    0.0000 H   0  0  0  0  0  0  0  0  0  0  0  0
    2.3568   -0.9629    0.0000 H   0  0  0  0  0  0  0  0  0  0  0  0
  2 12  1  0  0  0  0
  3  1  1  0  0  0  0
  4 15  1  0  0  0  0
  5 31  1  0  0  0  0
  6 21  1  0  0  0  0
  7  4  1  0  0  0  0
  8 35  1  0  0  0  0
  9  5  1  0  0  0  0
 10  9  1  0  0  0  0
 11  7  1  0  0  0  0
 12 13  1  0  0  0  0
 13  1  1  0  0  0  0
 14  4  1  0  0  0  0
  6 15  1  0  0  0  0
 16  5  1  0  0  0  0
 17 19  1  0  0  0  0
 18  3  1  0  0  0  0
 19 14  1  0  0  0  0
 18 20  1  0  0  0  0
 21 16  1  0  0  0  0
 22  1  1  0  0  0  0
 23  3  1  0  0  0  0
 24 20  2  0  0  0  0
 25 34  1  0  0  0  0
 26 20  1  0  0  0  0
 27 24  1  0  0  0  0
 28  8  1  0  0  0  0
 29  2  1  0  0  0  0
 30 12  1  0  0  0  0
 37 31  1  0  0  0  0
 32 22  1  0  0  0  0
 33 13  1  0  0  0  0
 34 26  2  0  0  0  0
 35 33  1  0  0  0  0
  2 36  1  0  0  0  0
 37 28  1  0  0  0  0
 38 25  2  0  0  0  0
  1 39  1  0  0  0  0
  9 40  1  0  0  0  0
  7 41  1  0  0  0  0
  8 42  1  0  0  0  0
 43 36  2  0  0  0  0
 10 44  1  0  0  0  0
 11 45  1  0  0  0  0
 17 46  1  0  0  0  0
 47 29  1  0  0  0  0
  3 48  1  0  0  0  0
 19 49  1  0  0  0  0
 50 49  1  0  0  0  0
 21 51  1  0  0  0  0
 13 52  1  1  0  0  0
 12 53  1  6  0  0  0
 18 32  1  0  0  0  0
 30 23  1  0  0  0  0
  8  2  1  0  0  0  0
 37 47  1  0  0  0  0
 25 27  1  0  0  0  0
 10  6  1  0  0  0  0
 11 17  1  0  0  0  0
M  END
>  <IDNUMBER> (0449-0154)
0449-0154

>  <available> (0449-0154)
22

>  <H_acceptor> (0449-0154)
15

>  <H_donor> (0449-0154)
8

>  <B_rotN> (0449-0154)
15

>  <N_O> (0449-0154)
15

>  <logP> (0449-0154)
-1.44

>  <logD> (0449-0154)
-3.23

>  <logSw> (0449-0154)
1.87

>  <PSA> (0449-0154)
242.13

>  <Chiral_centers> (0449-0154)
18

>  <Name> (0449-0154)
7-[(3,4-dihydroxy-6-methyl-5-{[3,4,5-trihydroxy-6-(hydroxymethyl)oxan-2-yl]oxy}oxan-2-yl)oxy]-3a,5a-dihydroxy-11a-methyl-1-(2-oxo-2H-pyran-5-yl)-hexadecahydro-1H-cyclopenta[a]phenanthrene-9a-carbaldeh
yde

>  <Smile> (0449-0154)
CC1C(C(C(C(OC2CC3(C(C4C(C5(O)CCC(C5(C)CC4)C4=COC(=O)C=C4)CC3)(C=O)CC2)O)O1)O)O)OC1C(C(C(C(O1)CO)O)O)O

>  <Collection> (0449-0154)
DC

>  <InChI Key> (0449-0154)
DCSLTSSPIJWEJN-JVBBOKKESA-N

>  <PERCENTSP3> (0449-0154)
83.3

$$$$

  -ISIS-  -- StrEd -- 

 51 57  0  0  0  0  0  0  0  0999 V2000
    3.1511    0.2122    0.0000 C   0  0  0  0  0  0  0  0  0  0  0  0
    3.1511    1.0158    0.0000 C   0  0  0  0  0  0  0  0  0  0  0  0
   -3.7656    0.6530    0.0000 C   0  0  0  0  0  0  0  0  0  0  0  0
   -1.0581   -2.5624    0.0000 C   0  0  0  0  0  0  0  0  0  0  0  0
   -3.7656   -2.5624    0.0000 C   0  0  0  0  0  0  0  0  0  0  0  0
   -4.5304    1.5910    0.0000 C   0  0  0  0  0  0  0  0  0  0  0  0
   -1.7558   -3.4332    0.0000 C   0  0  0  0  0  0  0  0  0  0  0  0
    1.0300   -0.2345    0.0000 C   0  0  0  0  0  0  0  0  0  0  0  0
   -3.0677   -3.4332    0.0000 C   0  0  0  0  0  0  0  0  0  0  0  0
   -5.9760    1.5910    0.0000 C   0  0  0  0  0  0  0  0  0  0  0  0
    2.4536   -0.2345    0.0000 C   0  0  1  0  0  0  0  0  0  0  0  0
    1.7556    0.2122    0.0000 C   0  0  2  0  0  0  0  0  0  0  0  0
   -4.5304   -0.3406    0.0000 O   0  0  0  0  0  0  0  0  0  0  0  0
   -3.7656   -1.0608    0.0000 O   0  0  0  0  0  0  0  0  0  0  0  0
   -1.7558   -1.6636    0.0000 O   0  0  0  0  0  0  0  0  0  0  0  0
    4.4742    2.2050    0.0000 C   0  0  0  0  0  0  0  0  0  0  0  0
    3.9273    1.2561    0.0000 C   0  0  0  0  0  0  0  0  0  0  0  0
   -6.6571    0.6530    0.0000 C   0  0  0  0  0  0  0  0  0  0  0  0
   -5.9760   -0.3406    0.0000 C   0  0  0  0  0  0  0  0  0  0  0  0
   -3.0677   -1.6636    0.0000 C   0  0  0  0  0  0  0  0  0  0  0  0
    5.5853    2.4898    0.0000 C   0  0  0  0  0  0  0  0  0  0  0  0
    1.0300   -1.0217    0.0000 C   0  0  2  0  0  0  0  0  0  0  0  0
    5.6689    3.5838    0.0000 C   0  0  0  0  0  0  0  0  0  0  0  0
    3.9273   -0.0445    0.0000 C   0  0  0  0  0  0  0  0  0  0  0  0
    2.4536    1.4178    0.0000 C   0  0  0  0  0  0  0  0  0  0  0  0
    1.7556    1.0158    0.0000 C   0  0  0  0  0  0  0  0  0  0  0  0
   -1.0581   -1.4512    0.0000 O   0  0  0  0  0  0  0  0  0  0  0  0
    4.6250    4.0304    0.0000 O   0  0  0  0  0  0  0  0  0  0  0  0
    4.3681    0.6139    0.0000 C   0  0  0  0  0  0  0  0  0  0  0  0
    0.3098    0.2122    0.0000 C   0  0  0  0  0  0  0  0  0  0  0  0
    2.4536   -1.0217    0.0000 C   0  0  0  0  0  0  0  0  0  0  0  0
    3.8994    3.1709    0.0000 C   0  0  0  0  0  0  0  0  0  0  0  0
    0.3098   -1.4234    0.0000 C   0  0  0  0  0  0  0  0  0  0  0  0
    1.7556   -1.4234    0.0000 C   0  0  0  0  0  0  0  0  0  0  0  0
   -0.3489   -1.0217    0.0000 C   0  0  0  0  0  0  0  0  0  0  0  0
    6.6571    4.1869    0.0000 O   0  0  0  0  0  0  0  0  0  0  0  0
    3.1623   -0.7537    0.0000 O   0  0  0  0  0  0  0  0  0  0  0  0
   -1.7558   -4.1869    0.0000 O   0  0  0  0  0  0  0  0  0  0  0  0
   -4.5304    2.4452    0.0000 O   0  0  0  0  0  0  0  0  0  0  0  0
   -3.0677   -2.4284    0.0000 O   0  0  0  0  0  0  0  0  0  0  0  0
   -5.9760    0.6643    0.0000 O   0  0  0  0  0  0  0  0  0  0  0  0
   -6.6571    2.0208    0.0000 O   0  0  0  0  0  0  0  0  0  0  0  0
   -0.3489   -0.2345    0.0000 C   0  0  0  0  0  0  0  0  0  0  0  0
    3.1623    1.9651    0.0000 C   0  0  0  0  0  0  0  0  0  0  0  0
    1.0185    0.7591    0.0000 C   0  0  0  0  0  0  0  0  0  0  0  0
   -5.9760   -1.1945    0.0000 C   0  0  0  0  0  0  0  0  0  0  0  0
   -5.2115   -1.6915    0.0000 O   0  0  0  0  0  0  0  0  0  0  0  0
   -3.0677   -0.8875    0.0000 C   0  0  0  0  0  0  0  0  0  0  0  0
    1.0300   -2.0934    0.0000 H   0  0  0  0  0  0  0  0  0  0  0  0
    2.4536    0.5026    0.0000 H   0  0  0  0  0  0  0  0  0  0  0  0
    1.7556   -0.5694    0.0000 H   0  0  0  0  0  0  0  0  0  0  0  0
  2  1  1  0  0  0  0
  3 14  1  0  0  0  0
  4 27  1  0  0  0  0
  5 20  1  0  0  0  0
  6  3  1  0  0  0  0
  7  4  1  0  0  0  0
  8 12  1  0  0  0  0
  9  7  1  0  0  0  0
 10  6  1  0  0  0  0
 11  1  1  0  0  0  0
 12 11  1  0  0  0  0
 13  3  1  0  0  0  0
  5 14  1  0  0  0  0
 15  4  1  0  0  0  0
 17 16  1  0  0  0  0
 17  2  1  0  0  0  0
 18 19  1  0  0  0  0
 19 13  1  0  0  0  0
 20 15  1  0  0  0  0
 21 16  2  0  0  0  0
 22 34  1  0  0  0  0
 23 21  1  0  0  0  0
 24  1  1  0  0  0  0
 25  2  1  0  0  0  0
 26 12  1  0  0  0  0
 35 27  1  0  0  0  0
 28 32  1  0  0  0  0
 29 24  1  0  0  0  0
 30  8  1  0  0  0  0
 31 11  1  0  0  0  0
 32 16  1  0  0  0  0
 33 22  1  0  0  0  0
 34 31  1  0  0  0  0
 35 33  1  0  0  0  0
 36 23  2  0  0  0  0
  1 37  1  0  0  0  0
  7 38  1  0  0  0  0
  6 39  1  0  0  0  0
  9 40  1  0  0  0  0
 10 41  1  0  0  0  0
 18 42  1  0  0  0  0
 43 30  1  0  0  0  0
  2 44  1  0  0  0  0
  8 45  1  0  0  0  0
 19 46  1  0  0  0  0
 47 46  1  0  0  0  0
 20 48  1  0  0  0  0
 22 49  1  6  0  0  0
 11 50  1  1  0  0  0
 12 51  1  6  0  0  0
 29 17  1  0  0  0  0
 25 26  1  0  0  0  0
  8 22  1  0  0  0  0
 43 35  1  0  0  0  0
 28 23  1  0  0  0  0
  5  9  1  0  0  0  0
 18 10  1  0  0  0  0
M  END
>  <IDNUMBER> (0449-0140)
0449-0140

>  <available> (0449-0140)
302

>  <H_acceptor> (0449-0140)
13

>  <H_donor> (0449-0140)
7

>  <B_rotN> (0449-0140)
13

>  <N_O> (0449-0140)
13

>  <logP> (0449-0140)
0.67

>  <logD> (0449-0140)
-0.29

>  <logSw> (0449-0140)
-4.57

>  <PSA> (0449-0140)
204.83

>  <Chiral_centers> (0449-0140)
18

>  <Name> (0449-0140)
4-{7-[(3,4-dihydroxy-6-methyl-5-{[3,4,5-trihydroxy-6-(hydroxymethyl)oxan-2-yl]oxy}oxan-2-yl)oxy]-3a-hydroxy-9a,11a-dimethyl-hexadecahydro-1H-cyclopenta[a]phenanthren-1-yl}-2,5-dihydrofuran-2-one

>  <Smile> (0449-0140)
CC1C(C(C(C(OC2CC3C(C4C(C5(O)CCC(C5(C)CC4)C4=CC(=O)OC4)CC3)(CC2)C)O1)O)O)OC1C(C(O)C(C(O1)CO)O)O

>  <Collection> (0449-0140)
DC

>  <InChI Key> (0449-0140)
OQZGLOBKVNEEPK-QBAKLKNNSA-N

>  <PERCENTSP3> (0449-0140)
91.4

$$$$

  -ISIS-  -- StrEd -- 

 42 46  0  0  0  0  0  0  0  0999 V2000
   -0.8461   -2.8247    0.0000 C   0  0  0  0  0  0  0  0  0  0  0  0
   -3.4592   -0.3186    0.0000 C   0  0  0  0  0  0  0  0  0  0  0  0
    0.0267   -3.3173    0.0000 C   0  0  0  0  0  0  0  0  0  0  0  0
   -4.3320    0.1956    0.0000 C   0  0  0  0  0  0  0  0  0  0  0  0
   -0.0750    2.7765    0.0000 C   0  0  0  0  0  0  0  0  0  0  0  0
    0.8728   -1.8233    0.0000 C   0  0  0  0  0  0  0  0  0  0  0  0
    0.8728   -2.8247    0.0000 C   0  0  0  0  0  0  0  0  0  0  0  0
   -0.8461   -1.8233    0.0000 C   0  0  0  0  0  0  0  0  0  0  0  0
   -4.3320    1.1966    0.0000 C   0  0  0  0  0  0  0  0  0  0  0  0
    0.7603    3.3173    0.0000 C   0  0  0  0  0  0  0  0  0  0  0  0
    0.0267   -1.3091    0.0000 O   0  0  0  0  0  0  0  0  0  0  0  0
   -0.0269    1.8020    0.0000 C   0  0  0  0  0  0  0  0  0  0  0  0
   -2.6078    0.1956    0.0000 O   0  0  0  0  0  0  0  0  0  0  0  0
   -3.4592    1.6841    0.0000 C   0  0  0  0  0  0  0  0  0  0  0  0
    0.8461    1.3362    0.0000 O   0  0  0  0  0  0  0  0  0  0  0  0
   -2.6347    1.1966    0.0000 C   0  0  0  0  0  0  0  0  0  0  0  0
   -1.7083   -3.3173    0.0000 C   0  0  0  0  0  0  0  0  0  0  0  0
    1.6333    2.8782    0.0000 C   0  0  0  0  0  0  0  0  0  0  0  0
    1.6814    1.8769    0.0000 C   0  0  0  0  0  0  0  0  0  0  0  0
   -2.5595   -1.8233    0.0000 C   0  0  0  0  0  0  0  0  0  0  0  0
   -1.7083   -1.3091    0.0000 C   0  0  0  0  0  0  0  0  0  0  0  0
   -3.4592   -1.3091    0.0000 O   0  0  0  0  0  0  0  0  0  0  0  0
   -2.5595   -2.8247    0.0000 C   0  0  0  0  0  0  0  0  0  0  0  0
   -0.8728    1.2718    0.0000 O   0  0  0  0  0  0  0  0  0  0  0  0
    1.7350   -1.3358    0.0000 C   0  0  0  0  0  0  0  0  0  0  0  0
    0.0535   -4.3186    0.0000 O   0  0  0  0  0  0  0  0  0  0  0  0
   -1.7457    1.7376    0.0000 C   0  0  0  0  0  0  0  0  0  0  0  0
   -5.2155   -0.3186    0.0000 O   0  0  0  0  0  0  0  0  0  0  0  0
   -0.9747    3.2424    0.0000 O   0  0  0  0  0  0  0  0  0  0  0  0
    2.6076   -1.8233    0.0000 C   0  0  0  0  0  0  0  0  0  0  0  0
    1.7456   -0.3348    0.0000 C   0  0  0  0  0  0  0  0  0  0  0  0
   -3.4806    0.6935    0.0000 O   0  0  0  0  0  0  0  0  0  0  0  0
    0.7338    4.3186    0.0000 O   0  0  0  0  0  0  0  0  0  0  0  0
   -3.4325    2.6854    0.0000 O   0  0  0  0  0  0  0  0  0  0  0  0
   -1.7350   -4.3186    0.0000 O   0  0  0  0  0  0  0  0  0  0  0  0
    2.4792    3.4460    0.0000 O   0  0  0  0  0  0  0  0  0  0  0  0
    3.4592   -0.3348    0.0000 C   0  0  0  0  0  0  0  0  0  0  0  0
    3.4592   -1.3358    0.0000 C   0  0  0  0  0  0  0  0  0  0  0  0
    2.6076    0.1687    0.0000 C   0  0  0  0  0  0  0  0  0  0  0  0
    4.3320    0.1687    0.0000 O   0  0  0  0  0  0  0  0  0  0  0  0
    0.7442    2.3534    0.0000 C   0  0  0  0  0  0  0  0  0  0  0  0
    5.2155   -0.3186    0.0000 C   0  0  0  0  0  0  0  0  0  0  0  0
  2 22  1  0  0  0  0
  3  1  1  0  0  0  0
  4  2  1  0  0  0  0
  5 12  1  0  0  0  0
  6 11  1  0  0  0  0
  7  3  1  0  0  0  0
  8  1  2  0  0  0  0
  9  4  1  0  0  0  0
 10  5  1  0  0  0  0
 11  8  1  0  0  0  0
 12 24  1  0  0  0  0
 13  2  1  0  0  0  0
 14 16  1  0  0  0  0
 15 12  1  0  0  0  0
 16 13  1  0  0  0  0
 17  1  1  0  0  0  0
 18 19  1  0  0  0  0
 19 15  1  0  0  0  0
 20 23  1  0  0  0  0
 21  8  1  0  0  0  0
 22 20  1  0  0  0  0
 23 17  2  0  0  0  0
 24 27  1  0  0  0  0
 25  6  1  0  0  0  0
 26  3  2  0  0  0  0
 16 27  1  0  0  0  0
  4 28  1  0  0  0  0
  5 29  1  0  0  0  0
 30 25  2  0  0  0  0
 31 25  1  0  0  0  0
  9 32  1  0  0  0  0
 10 33  1  0  0  0  0
 14 34  1  0  0  0  0
 35 17  1  0  0  0  0
 18 36  1  0  0  0  0
 37 39  1  0  0  0  0
 38 30  1  0  0  0  0
 39 31  2  0  0  0  0
 40 37  1  0  0  0  0
 19 41  1  0  0  0  0
 42 40  1  0  0  0  0
 21 20  2  0  0  0  0
  7  6  2  0  0  0  0
 37 38  2  0  0  0  0
  9 14  1  0  0  0  0
 10 18  1  0  0  0  0
M  END
>  <IDNUMBER> (0080-0014)
0080-0014

>  <available> (0080-0014)
354

>  <H_acceptor> (0080-0014)
14

>  <H_donor> (0080-0014)
7

>  <B_rotN> (0080-0014)
14

>  <N_O> (0080-0014)
14

>  <logP> (0080-0014)
-0.28

>  <logD> (0080-0014)
-0.36

>  <logSw> (0080-0014)
-2.49

>  <PSA> (0080-0014)
214.06

>  <Chiral_centers> (0080-0014)
10

>  <Name> (0080-0014)
5-hydroxy-2-(4-methoxyphenyl)-7-[(3,4,5-trihydroxy-6-{[(3,4,5-trihydroxy-6-methyloxan-2-yl)oxy]methyl}oxan-2-yl)oxy]-4H-chromen-4-one

>  <Smile> (0080-0014)
COc1ccc(C2Oc3c(c(cc(OC4C(C(C(C(O4)COC4C(O)C(C(C(O4)C)O)O)O)O)O)c3)O)C(=O)C=2)cc1

>  <Collection> (0080-0014)
DC

>  <InChI Key> (0080-0014)
YFVGIJBUXMQFOF-UHFFFAOYSA-N

>  <PERCENTSP3> (0080-0014)
46.4

$$$$

  -ISIS-  -- StrEd -- 

 61 68  0  0  0  0  0  0  0  0999 V2000
    4.5763    3.2234    0.0000 C   0  0  0  0  0  0  0  0  0  0  0  0
    4.5763    3.9430    0.0000 C   0  0  0  0  0  0  0  0  0  0  0  0
    2.8108    2.9069    0.0000 C   0  0  0  0  0  0  0  0  0  0  0  0
    3.3864    3.2234    0.0000 C   0  0  2  0  0  0  0  0  0  0  0  0
    3.9811    2.9069    0.0000 C   0  0  1  0  0  0  0  0  0  0  0  0
    5.4972    5.0941    0.0000 C   0  0  0  0  0  0  0  0  0  0  0  0
    5.2285    4.0965    0.0000 C   0  0  0  0  0  0  0  0  0  0  0  0
   -5.7849   -5.0172    0.0000 C   0  0  0  0  0  0  0  0  0  0  0  0
   -1.3146    0.8540    0.0000 C   0  0  0  0  0  0  0  0  0  0  0  0
   -3.7800   -1.1031    0.0000 C   0  0  0  0  0  0  0  0  0  0  0  0
    2.8108    2.1683    0.0000 C   0  0  0  0  0  0  0  0  0  0  0  0
    2.1586    3.2234    0.0000 C   0  0  0  0  0  0  0  0  0  0  0  0
   -3.7800   -4.1446    0.0000 C   0  0  0  0  0  0  0  0  0  0  0  0
   -1.3146   -1.1031    0.0000 C   0  0  0  0  0  0  0  0  0  0  0  0
    1.0073    0.8540    0.0000 C   0  0  0  0  0  0  0  0  0  0  0  0
   -1.9573   -0.2496    0.0000 O   0  0  0  0  0  0  0  0  0  0  0  0
    0.4123    1.6406    0.0000 O   0  0  0  0  0  0  0  0  0  0  0  0
   -4.4230   -3.2428    0.0000 O   0  0  0  0  0  0  0  0  0  0  0  0
   -4.4230   -5.0172    0.0000 C   0  0  0  0  0  0  0  0  0  0  0  0
   -1.9573   -1.8899    0.0000 C   0  0  0  0  0  0  0  0  0  0  0  0
    0.4123    0.1150    0.0000 C   0  0  0  0  0  0  0  0  0  0  0  0
   -6.3990   -4.1446    0.0000 C   0  0  0  0  0  0  0  0  0  0  0  0
    4.8542    5.8521    0.0000 C   0  0  0  0  0  0  0  0  0  0  0  0
   -0.7388    0.1150    0.0000 C   0  0  0  0  0  0  0  0  0  0  0  0
   -3.2042   -1.8899    0.0000 C   0  0  0  0  0  0  0  0  0  0  0  0
   -3.2042   -0.2496    0.0000 C   0  0  0  0  0  0  0  0  0  0  0  0
   -0.7388    1.6406    0.0000 C   0  0  0  0  0  0  0  0  0  0  0  0
    5.4778    6.7441    0.0000 C   0  0  0  0  0  0  0  0  0  0  0  0
   -5.7849   -3.2428    0.0000 C   0  0  0  0  0  0  0  0  0  0  0  0
    3.9811    4.2881    0.0000 C   0  0  0  0  0  0  0  0  0  0  0  0
    5.2285    2.9930    0.0000 C   0  0  0  0  0  0  0  0  0  0  0  0
   -3.7800   -2.5326    0.0000 O   0  0  0  0  0  0  0  0  0  0  0  0
   -1.3146   -0.1630    0.0000 O   0  0  0  0  0  0  0  0  0  0  0  0
    3.3864    3.9430    0.0000 C   0  0  0  0  0  0  0  0  0  0  0  0
    1.6117    2.9069    0.0000 C   0  0  0  0  0  0  0  0  0  0  0  0
   -5.7849   -6.2835    0.0000 O   0  0  0  0  0  0  0  0  0  0  0  0
    6.4468    6.4468    0.0000 O   0  0  0  0  0  0  0  0  0  0  0  0
    5.6124    3.5688    0.0000 C   0  0  0  0  0  0  0  0  0  0  0  0
    3.9811    2.1683    0.0000 C   0  0  0  0  0  0  0  0  0  0  0  0
    1.6117    2.1683    0.0000 C   0  0  0  0  0  0  0  0  0  0  0  0
   -4.9314   -6.7635    0.0000 C   0  0  0  0  0  0  0  0  0  0  0  0
    2.1586    1.8707    0.0000 C   0  0  0  0  0  0  0  0  0  0  0  0
    6.4468    5.4586    0.0000 C   0  0  0  0  0  0  0  0  0  0  0  0
    1.0073    1.8227    0.0000 O   0  0  0  0  0  0  0  0  0  0  0  0
    3.3864    1.8707    0.0000 C   0  0  0  0  0  0  0  0  0  0  0  0
    5.1324    7.7613    0.0000 O   0  0  0  0  0  0  0  0  0  0  0  0
    4.5569    2.0531    0.0000 O   0  0  0  0  0  0  0  0  0  0  0  0
   -4.9314   -7.7613    0.0000 O   0  0  0  0  0  0  0  0  0  0  0  0
    2.1392    4.5377    0.0000 O   0  0  0  0  0  0  0  0  0  0  0  0
   -6.4468   -5.6410    0.0000 O   0  0  0  0  0  0  0  0  0  0  0  0
    4.5089    5.1613    0.0000 C   0  0  0  0  0  0  0  0  0  0  0  0
   -0.7388   -0.5469    0.0000 O   0  0  0  0  0  0  0  0  0  0  0  0
   -3.1756   -2.7344    0.0000 O   0  0  0  0  0  0  0  0  0  0  0  0
    2.8780    6.4756    0.0000 C   0  0  0  0  0  0  0  0  0  0  0  0
   -0.7579    2.8780    0.0000 C   0  0  0  0  0  0  0  0  0  0  0  0
   -3.1756    0.9018    0.0000 C   0  0  0  0  0  0  0  0  0  0  0  0
   -5.7849   -2.2066    0.0000 C   0  0  0  0  0  0  0  0  0  0  0  0
   -4.1252   -6.2835    0.0000 C   0  0  0  0  0  0  0  0  0  0  0  0
    3.4055    2.3985    0.0000 H   0  0  0  0  0  0  0  0  0  0  0  0
    3.9811    3.6168    0.0000 H   0  0  0  0  0  0  0  0  0  0  0  0
    2.8108    1.0170    0.0000 H   0  0  0  0  0  0  0  0  0  0  0  0
  2  1  1  0  0  0  0
  3  4  1  0  0  0  0
  4  5  1  0  0  0  0
  5  1  1  0  0  0  0
  7  6  1  0  0  0  0
  7  2  1  0  0  0  0
  8 19  1  0  0  0  0
  9 24  1  0  0  0  0
 10 25  1  0  0  0  0
 11 45  1  0  0  0  0
 12  3  1  0  0  0  0
 13 32  1  0  0  0  0
 14 33  1  0  0  0  0
 15 44  1  0  0  0  0
 16 14  1  0  0  0  0
 17 15  1  0  0  0  0
 18 13  1  0  0  0  0
 19 13  1  0  0  0  0
 20 14  1  0  0  0  0
 21 15  1  0  0  0  0
 22  8  1  0  0  0  0
 23  6  2  0  0  0  0
 24 21  1  0  0  0  0
 25 20  1  0  0  0  0
 26 16  1  0  0  0  0
 27 17  1  0  0  0  0
 28 23  1  0  0  0  0
 29 18  1  0  0  0  0
 30  2  1  0  0  0  0
 31  1  1  0  0  0  0
 10 32  1  0  0  0  0
  9 33  1  0  0  0  0
 34  4  1  0  0  0  0
 35 12  1  0  0  0  0
  8 36  1  0  0  0  0
 37 43  1  0  0  0  0
 38 31  1  0  0  0  0
 39  5  1  0  0  0  0
 40 42  1  0  0  0  0
 41 36  1  0  0  0  0
 42 11  1  0  0  0  0
 43  6  1  0  0  0  0
 40 44  1  0  0  0  0
 45 39  1  0  0  0  0
 46 28  2  0  0  0  0
  1 47  1  0  0  0  0
 48 41  2  0  0  0  0
 12 49  1  0  0  0  0
 22 50  1  0  0  0  0
  2 51  1  0  0  0  0
 24 52  1  0  0  0  0
 25 53  1  0  0  0  0
  3 54  1  0  0  0  0
 27 55  1  0  0  0  0
 26 56  1  0  0  0  0
 29 57  1  0  0  0  0
 58 41  1  0  0  0  0
  4 59  1  6  0  0  0
  5 60  1  1  0  0  0
 11 61  1  0  0  0  0
 38  7  1  0  0  0  0
 30 34  1  0  0  0  0
  3 11  1  0  0  0  0
 37 28  1  0  0  0  0
 35 40  1  0  0  0  0
 27  9  1  0  0  0  0
 26 10  1  0  0  0  0
 29 22  1  0  0  0  0
M  END
>  <IDNUMBER> (0449-0166)
0449-0166

>  <available> (0449-0166)
237

>  <H_acceptor> (0449-0166)
15

>  <H_donor> (0449-0166)
5

>  <B_rotN> (0449-0166)
14

>  <N_O> (0449-0166)
15

>  <logP> (0449-0166)
2.15

>  <logD> (0449-0166)
1.53

>  <logSw> (0449-0166)
-4.83

>  <PSA> (0449-0166)
209.13

>  <Chiral_centers> (0449-0166)
21

>  <Name> (0449-0166)
6-({6-[(6-{[3a,9-dihydroxy-9a,11a-dimethyl-1-(5-oxo-2,5-dihydrofuran-3-yl)-hexadecahydro-1H-cyclopenta[a]phenanthren-7-yl]oxy}-4-hydroxy-2-methyloxan-3-yl)oxy]-4-hydroxy-2-methyloxan-3-yl}oxy)-3-hydro
xy-2-methyloxan-4-yl acetate

>  <Smile> (0449-0166)
CC(OC1C(C(OC(OC2C(OC(OC3C(OC(OC4CC(C5(C6C(C7(O)CCC(C7(C)CC6)C6=CC(=O)OC6)CCC5C4)C)O)CC3O)C)CC2O)C)C1)C)O)=O

>  <Collection> (0449-0166)
DC

>  <InChI Key> (0449-0166)
XAGMRZVKUMHJPF-KNPSSCMTSA-N

>  <PERCENTSP3> (0449-0166)
90.7

$$$$

  -ISIS-  -- StrEd -- 

 32 35  0  0  0  0  0  0  0  0999 V2000
    1.8975   -1.0427    0.0000 C   0  0  0  0  0  0  0  0  0  0  0  0
   -1.1895   -0.3251    0.0000 C   0  0  0  0  0  0  0  0  0  0  0  0
    2.6004   -1.4471    0.0000 C   0  0  0  0  0  0  0  0  0  0  0  0
   -2.5090    0.0119    0.0000 C   0  0  0  0  0  0  0  0  0  0  0  0
    3.3086   -0.2096    0.0000 C   0  0  0  0  0  0  0  0  0  0  0  0
    3.3086   -1.0427    0.0000 C   0  0  0  0  0  0  0  0  0  0  0  0
    1.8975   -0.2096    0.0000 C   0  0  0  0  0  0  0  0  0  0  0  0
   -4.1513   -0.5996    0.0000 C   0  0  0  0  0  0  0  0  0  0  0  0
    2.6004    0.2096    0.0000 O   0  0  0  0  0  0  0  0  0  0  0  0
   -2.2538    0.9946    0.0000 O   0  0  0  0  0  0  0  0  0  0  0  0
   -5.1530    1.0619    0.0000 C   0  0  0  0  0  0  0  0  0  0  0  0
    1.1797   -1.4471    0.0000 C   0  0  0  0  0  0  0  0  0  0  0  0
   -3.8958    0.4502    0.0000 C   0  0  0  0  0  0  0  0  0  0  0  0
    0.4768   -0.2096    0.0000 C   0  0  0  0  0  0  0  0  0  0  0  0
    4.0212    0.2096    0.0000 C   0  0  0  0  0  0  0  0  0  0  0  0
    1.1797    0.2096    0.0000 C   0  0  0  0  0  0  0  0  0  0  0  0
   -0.2550    0.2287    0.0000 O   0  0  0  0  0  0  0  0  0  0  0  0
    0.4768   -1.0427    0.0000 C   0  0  0  0  0  0  0  0  0  0  0  0
    4.0212    1.0379    0.0000 C   0  0  0  0  0  0  0  0  0  0  0  0
    4.7291    1.4569    0.0000 C   0  0  0  0  0  0  0  0  0  0  0  0
    2.6004   -2.2753    0.0000 O   0  0  0  0  0  0  0  0  0  0  0  0
    5.4321    1.0379    0.0000 C   0  0  0  0  0  0  0  0  0  0  0  0
    4.7291   -0.2096    0.0000 C   0  0  0  0  0  0  0  0  0  0  0  0
    5.4321    0.2096    0.0000 C   0  0  0  0  0  0  0  0  0  0  0  0
   -2.5090   -1.0184    0.0000 O   0  0  0  0  0  0  0  0  0  0  0  0
   -4.8398   -1.5387    0.0000 O   0  0  0  0  0  0  0  0  0  0  0  0
   -6.1594    0.5178    0.0000 O   0  0  0  0  0  0  0  0  0  0  0  0
    1.1797   -2.2753    0.0000 O   0  0  0  0  0  0  0  0  0  0  0  0
    4.7291    2.2753    0.0000 O   0  0  0  0  0  0  0  0  0  0  0  0
   -3.8958    1.2688    0.0000 C   0  0  0  0  0  0  0  0  0  0  0  0
    6.1594    1.4665    0.0000 O   0  0  0  0  0  0  0  0  0  0  0  0
   -3.2121    1.8372    0.0000 O   0  0  0  0  0  0  0  0  0  0  0  0
  2 17  1  0  0  0  0
  3  1  1  0  0  0  0
  4  2  1  0  0  0  0
  5  9  1  0  0  0  0
  6  3  1  0  0  0  0
  7  1  2  0  0  0  0
  8  4  1  0  0  0  0
  9  7  1  0  0  0  0
 10  2  1  0  0  0  0
 11 13  1  0  0  0  0
 12  1  1  0  0  0  0
 13 10  1  0  0  0  0
 14 18  1  0  0  0  0
 15  5  1  0  0  0  0
 16  7  1  0  0  0  0
 17 14  1  0  0  0  0
 18 12  2  0  0  0  0
 19 15  2  0  0  0  0
 20 19  1  0  0  0  0
 21  3  2  0  0  0  0
 22 24  1  0  0  0  0
 23 15  1  0  0  0  0
 24 23  2  0  0  0  0
  4 25  1  0  0  0  0
  8 26  1  0  0  0  0
 11 27  1  0  0  0  0
 28 12  1  0  0  0  0
 29 20  1  0  0  0  0
 13 30  1  0  0  0  0
 31 22  1  0  0  0  0
 32 30  1  0  0  0  0
 14 16  2  0  0  0  0
  6  5  2  0  0  0  0
 22 20  2  0  0  0  0
  8 11  1  0  0  0  0
M  END
>  <IDNUMBER> (0120-0018)
0120-0018

>  <available> (0120-0018)
622

>  <H_acceptor> (0120-0018)
11

>  <H_donor> (0120-0018)
7

>  <B_rotN> (0120-0018)
11

>  <N_O> (0120-0018)
11

>  <logP> (0120-0018)
0

>  <logD> (0120-0018)
-1.51

>  <logSw> (0120-0018)
-3.94

>  <PSA> (0120-0018)
186.37

>  <Chiral_centers> (0120-0018)
5

>  <Name> (0120-0018)
2-(3,4-dihydroxyphenyl)-5-hydroxy-7-{[3,4,5-trihydroxy-6-(hydroxymethyl)oxan-2-yl]oxy}-4H-chromen-4-one

>  <Smile> (0120-0018)
OCC1OC(Oc2cc(c3c(OC(c4cc(O)c(cc4)O)=CC3=O)c2)O)C(C(C1O)O)O

>  <Collection> (0120-0018)
DC

>  <InChI Key> (0120-0018)
PEFNSGRTCBGNAN-UHFFFAOYSA-N

>  <PERCENTSP3> (0120-0018)
28.6

$$$$

  -ISIS-  -- StrEd -- 

 24 27  0  0  0  0  0  0  0  0999 V2000
    0.2896    0.4979    0.0000 C   0  0  2  0  0  0  0  0  0  0  0  0
   -1.3604    0.4979    0.0000 C   0  0  2  0  0  0  0  0  0  0  0  0
   -1.3604   -0.4187    0.0000 C   0  0  1  0  0  0  0  0  0  0  0  0
   -0.5354    0.9771    0.0000 C   0  0  0  0  0  0  0  0  0  0  0  0
   -2.1646   -0.9269    0.0000 C   0  0  2  0  0  0  0  0  0  0  0  0
    1.0851    1.9562    0.0000 C   0  0  2  0  0  0  0  0  0  0  0  0
    2.2311    1.2396    0.0000 C   0  0  0  0  0  0  0  0  0  0  0  0
    1.0937    0.9812    0.0000 C   0  0  0  0  0  0  0  0  0  0  0  0
   -1.6854   -1.7310    0.0000 C   0  0  0  0  0  0  0  0  0  0  0  0
    1.2271   -0.1188    0.0000 C   0  0  0  0  0  0  0  0  0  0  0  0
   -0.5354   -0.9145    0.0000 C   0  0  0  0  0  0  0  0  0  0  0  0
   -0.5354    1.9354    0.0000 C   0  0  0  0  0  0  0  0  0  0  0  0
    0.2896   -0.4187    0.0000 C   0  0  0  0  0  0  0  0  0  0  0  0
    0.2562    2.3854    0.0000 C   0  0  0  0  0  0  0  0  0  0  0  0
    3.0812    1.3896    0.0000 O   0  0  0  0  0  0  0  0  0  0  0  0
   -2.1811   -2.5853    0.0000 O   0  0  0  0  0  0  0  0  0  0  0  0
   -2.1646    0.9771    0.0000 C   0  0  0  0  0  0  0  0  0  0  0  0
   -0.6813   -1.7310    0.0000 O   0  0  0  0  0  0  0  0  0  0  0  0
   -1.3604    1.4437    0.0000 C   0  0  0  0  0  0  0  0  0  0  0  0
   -2.9854   -0.4187    0.0000 C   0  0  0  0  0  0  0  0  0  0  0  0
   -3.0812   -1.5229    0.0000 C   0  0  0  0  0  0  0  0  0  0  0  0
    2.1229    2.5853    0.0000 C   0  0  0  0  0  0  0  0  0  0  0  0
   -2.9854    0.4979    0.0000 C   0  0  0  0  0  0  0  0  0  0  0  0
   -1.3479   -1.1103    0.0000 H   0  0  0  0  0  0  0  0  0  0  0  0
  2  4  1  0  0  0  0
  3 11  1  0  0  0  0
  4  1  1  0  0  0  0
  5  3  1  0  0  0  0
  6  8  1  0  0  0  0
  7 10  1  0  0  0  0
  8  1  1  0  0  0  0
  5  9  1  6  0  0  0
  1 10  1  6  0  0  0
 11 13  1  0  0  0  0
 12  4  1  0  0  0  0
 13  1  1  0  0  0  0
 14  6  1  0  0  0  0
 15  7  2  0  0  0  0
 16  9  2  0  0  0  0
 17  2  1  0  0  0  0
 18  9  1  0  0  0  0
  2 19  1  6  0  0  0
 20  5  1  0  0  0  0
  5 21  1  1  0  0  0
  6 22  1  1  0  0  0
 23 17  1  0  0  0  0
  3 24  1  1  0  0  0
  6  7  1  6  0  0  0
  2  3  1  0  0  0  0
 12 14  1  0  0  0  0
 23 20  1  0  0  0  0
M  END
>  <IDNUMBER> (N062-0006)
N062-0006

>  <available> (N062-0006)
307

>  <H_acceptor> (N062-0006)
3

>  <H_donor> (N062-0006)
1

>  <B_rotN> (N062-0006)
1

>  <N_O> (N062-0006)
3

>  <logP> (N062-0006)
3.95

>  <logD> (N062-0006)
1.28

>  <logSw> (N062-0006)
-3.73

>  <PSA> (N062-0006)
54.37

>  <Chiral_centers> (N062-0006)
6

>  <Name> (N062-0006)
5,9,13-TRIMETHYL-14-OXOTETRACYCLO[11.2.1.0^(1,10).0^(4,9)]HEXADECANE-5-CARBOXYLIC ACID

>  <Smile> (N062-0006)
[C@]123C([C@]4([C@@]([C@](C(=O)O)(CCC4)C)(CC1)[H])C)CC[C@](C(C2)=O)(C3)C

>  <Collection> (N062-0006)
DC

>  <InChI Key> (N062-0006)
KFVUFODCZDRVSS-LBWIARQKSA-N

>  <PERCENTSP3> (N062-0006)
90

$$$$

  -ISIS-  -- StrEd -- 

 35 39  0  0  0  0  0  0  0  0999 V2000
    0.0585   -0.6841    0.0000 C   0  0  1  0  0  0  0  0  0  0  0  0
   -0.7823   -1.1813    0.0000 C   0  0  1  0  0  0  0  0  0  0  0  0
   -2.5192   -1.1813    0.0000 C   0  0  2  0  0  0  0  0  0  0  0  0
    0.0585    0.3467    0.0000 C   0  0  0  0  0  0  0  0  0  0  0  0
   -1.6476   -0.6841    0.0000 C   0  0  0  0  0  0  0  0  0  0  0  0
   -2.5192   -2.1386    0.0000 C   0  0  0  0  0  0  0  0  0  0  0  0
    0.9113    0.8500    0.0000 C   0  0  0  0  0  0  0  0  0  0  0  0
   -3.3721   -2.6727    0.0000 C   0  0  1  0  0  0  0  0  0  0  0  0
    1.7828    0.3467    0.0000 C   0  0  0  0  0  0  0  0  0  0  0  0
    1.1506    1.8503    0.0000 C   0  0  2  0  0  0  0  0  0  0  0  0
   -0.7823   -2.1386    0.0000 C   0  0  0  0  0  0  0  0  0  0  0  0
   -4.2435   -2.1386    0.0000 C   0  0  0  0  0  0  0  0  0  0  0  0
    0.9113   -1.1384    0.0000 C   0  0  0  0  0  0  0  0  0  0  0  0
   -0.8255    0.8315    0.0000 C   0  0  0  0  0  0  0  0  0  0  0  0
   -3.3721   -0.6841    0.0000 C   0  0  0  0  0  0  0  0  0  0  0  0
   -1.6476    0.3160    0.0000 C   0  0  0  0  0  0  0  0  0  0  0  0
   -1.6476   -2.6419    0.0000 C   0  0  0  0  0  0  0  0  0  0  0  0
    0.5002    2.5865    0.0000 C   0  0  0  0  0  0  0  0  0  0  0  0
    2.1202    1.9361    0.0000 C   0  0  0  0  0  0  0  0  0  0  0  0
    4.3908   -0.2240    0.0000 C   0  0  0  0  0  0  0  0  0  0  0  0
    1.7828   -0.6536    0.0000 C   0  0  0  0  0  0  0  0  0  0  0  0
    2.5499    1.0277    0.0000 C   0  0  0  0  0  0  0  0  0  0  0  0
    2.6788   -0.1812    0.0000 C   0  0  0  0  0  0  0  0  0  0  0  0
   -4.2435   -1.1813    0.0000 C   0  0  0  0  0  0  0  0  0  0  0  0
   -5.2561   -2.6727    0.0000 O   0  0  0  0  0  0  0  0  0  0  0  0
    3.5625    0.2732    0.0000 O   0  0  0  0  0  0  0  0  0  0  0  0
    5.2561    0.2424    0.0000 O   0  0  0  0  0  0  0  0  0  0  0  0
    0.8377    3.5132    0.0000 C   0  0  0  0  0  0  0  0  0  0  0  0
    0.0585   -1.6417    0.0000 C   0  0  0  0  0  0  0  0  0  0  0  0
   -0.7945   -0.2853    0.0000 C   0  0  0  0  0  0  0  0  0  0  0  0
   -2.5192   -0.1812    0.0000 C   0  0  0  0  0  0  0  0  0  0  0  0
   -2.8565   -3.5132    0.0000 C   0  0  0  0  0  0  0  0  0  0  0  0
   -4.3294   -3.2923    0.0000 C   0  0  0  0  0  0  0  0  0  0  0  0
   -0.4694    2.4270    0.0000 C   0  0  0  0  0  0  0  0  0  0  0  0
    4.3603   -1.2856    0.0000 C   0  0  0  0  0  0  0  0  0  0  0  0
  2  1  1  0  0  0  0
  5  3  1  0  0  0  0
  4  1  1  0  0  0  0
  5  2  1  0  0  0  0
  6 17  1  0  0  0  0
  7  4  1  0  0  0  0
  8  6  1  0  0  0  0
  9 21  1  0  0  0  0
 10  7  1  0  0  0  0
 11  2  1  0  0  0  0
 12  8  1  0  0  0  0
 13  1  1  0  0  0  0
 14  4  1  0  0  0  0
 15  3  1  0  0  0  0
 16 14  1  0  0  0  0
 17 11  1  0  0  0  0
 10 18  1  6  0  0  0
 19 10  1  0  0  0  0
 20 26  1  0  0  0  0
 21 13  1  0  0  0  0
 22  9  1  0  0  0  0
  9 23  1  0  0  0  0
 24 15  1  0  0  0  0
 25 12  2  0  0  0  0
 26 23  1  0  0  0  0
 27 20  2  0  0  0  0
 28 18  2  0  0  0  0
  1 29  1  6  0  0  0
  2 30  1  1  0  0  0
  3 31  1  1  0  0  0
  8 32  1  6  0  0  0
  8 33  1  1  0  0  0
 34 18  1  0  0  0  0
 35 20  1  0  0  0  0
  7  9  1  0  0  0  0
 16  5  1  0  0  0  0
 22 19  1  0  0  0  0
  6  3  1  0  0  0  0
 12 24  1  0  0  0  0
M  END
>  <IDNUMBER> (N064-0018)
N064-0018

>  <available> (N064-0018)
167

>  <H_acceptor> (N064-0018)
3

>  <H_donor> (N064-0018)
0

>  <B_rotN> (N064-0018)
4

>  <N_O> (N064-0018)
3

>  <logP> (N064-0018)
6.65

>  <logD> (N064-0018)
8.97

>  <logSw> (N064-0018)
-10.07

>  <PSA> (N064-0018)
43.37

>  <Chiral_centers> (N064-0018)
9

>  <Name> (N064-0018)
[5a,5b,8,8,11a-pentamethyl-9-oxo-1-(prop-1-en-2-yl)-icosahydro-1H-cyclopenta[a]chrysen-3a-yl]methyl acetate

>  <Smile> (N064-0018)
CC(OCC12C(C3C(CC2)(C2(C)C(C4(CCC(C(C4CC2)(C)C)=O)C)CC3)C)C(CC1)C(=C)C)=O

>  <Collection> (N064-0018)
DC

>  <InChI Key> (N064-0018)
KONAXQKGWYDUTG-BDHUSWEWSA-N

>  <PERCENTSP3> (N064-0018)
87.5

$$$$

  -ISIS-  -- StrEd -- 

 36 40  0  0  0  0  0  0  0  0999 V2000
    1.7812   -0.6908    0.0000 C   0  0  1  0  0  0  0  0  0  0  0  0
    0.9372   -1.1912    0.0000 C   0  0  1  0  0  0  0  0  0  0  0  0
   -0.7953   -1.1912    0.0000 C   0  0  2  0  0  0  0  0  0  0  0  0
    3.5214    0.3472    0.0000 C   0  0  0  0  0  0  0  0  0  0  0  0
    2.6401    0.8551    0.0000 C   0  0  0  0  0  0  0  0  0  0  0  0
    1.7812    0.3472    0.0000 C   0  0  0  0  0  0  0  0  0  0  0  0
    0.0787   -0.6908    0.0000 C   0  0  0  0  0  0  0  0  0  0  0  0
   -0.7953   -2.1397    0.0000 C   0  0  0  0  0  0  0  0  0  0  0  0
   -1.6615   -2.6774    0.0000 C   0  0  1  0  0  0  0  0  0  0  0  0
    2.8791    1.8559    0.0000 C   0  0  1  0  0  0  0  0  0  0  0  0
    4.4174   -0.1904    0.0000 C   0  0  0  0  0  0  0  0  0  0  0  0
   -2.5206   -2.1397    0.0000 C   0  0  0  0  0  0  0  0  0  0  0  0
    2.6401   -1.1389    0.0000 C   0  0  0  0  0  0  0  0  0  0  0  0
    0.9372   -2.1397    0.0000 C   0  0  0  0  0  0  0  0  0  0  0  0
    3.5214   -0.6536    0.0000 C   0  0  0  0  0  0  0  0  0  0  0  0
    4.2758    1.0343    0.0000 C   0  0  0  0  0  0  0  0  0  0  0  0
    0.9074    0.8327    0.0000 C   0  0  0  0  0  0  0  0  0  0  0  0
   -1.6615   -0.6908    0.0000 C   0  0  0  0  0  0  0  0  0  0  0  0
    0.0787    0.3173    0.0000 C   0  0  0  0  0  0  0  0  0  0  0  0
    0.0787   -2.6401    0.0000 C   0  0  0  0  0  0  0  0  0  0  0  0
    3.8650    1.9455    0.0000 C   0  0  0  0  0  0  0  0  0  0  0  0
    2.2293    2.5876    0.0000 C   0  0  0  0  0  0  0  0  0  0  0  0
   -3.5436   -2.6774    0.0000 O   0  0  0  0  0  0  0  0  0  0  0  0
   -4.3652   -2.1248    0.0000 C   0  0  0  0  0  0  0  0  0  0  0  0
   -2.5206   -1.1912    0.0000 C   0  0  0  0  0  0  0  0  0  0  0  0
    4.4174   -1.1763    0.0000 O   0  0  0  0  0  0  0  0  0  0  0  0
   -4.3652   -1.1389    0.0000 O   0  0  0  0  0  0  0  0  0  0  0  0
    2.5729    3.5212    0.0000 C   0  0  0  0  0  0  0  0  0  0  0  0
    1.7812   -1.6393    0.0000 C   0  0  0  0  0  0  0  0  0  0  0  0
    5.2988    0.2800    0.0000 O   0  0  0  0  0  0  0  0  0  0  0  0
    0.9372   -0.2949    0.0000 C   0  0  0  0  0  0  0  0  0  0  0  0
   -0.7953   -0.1904    0.0000 C   0  0  0  0  0  0  0  0  0  0  0  0
   -1.1389   -3.5212    0.0000 C   0  0  0  0  0  0  0  0  0  0  0  0
   -2.6103   -3.2899    0.0000 C   0  0  0  0  0  0  0  0  0  0  0  0
    1.2658    2.4310    0.0000 C   0  0  0  0  0  0  0  0  0  0  0  0
   -5.2988   -2.5206    0.0000 C   0  0  0  0  0  0  0  0  0  0  0  0
  2  1  1  0  0  0  0
  7  3  1  0  0  0  0
  4 15  1  0  0  0  0
  6  5  1  0  0  0  0
  6  1  1  0  0  0  0
  7  2  1  0  0  0  0
  8 20  1  0  0  0  0
  9  8  1  0  0  0  0
 10  5  1  0  0  0  0
  4 11  1  0  0  0  0
 12  9  1  0  0  0  0
 13  1  1  0  0  0  0
 14  2  1  0  0  0  0
 15 13  1  0  0  0  0
 16  4  1  0  0  0  0
 17  6  1  0  0  0  0
 18  3  1  0  0  0  0
 19 17  1  0  0  0  0
 20 14  1  0  0  0  0
 21 10  1  0  0  0  0
 10 22  1  6  0  0  0
 12 23  1  0  0  0  0
 24 23  1  0  0  0  0
 25 18  1  0  0  0  0
 26 11  2  0  0  0  0
 27 24  2  0  0  0  0
 28 22  2  0  0  0  0
  1 29  1  6  0  0  0
 30 11  1  0  0  0  0
  2 31  1  1  0  0  0
  3 32  1  1  0  0  0
  9 33  1  6  0  0  0
  9 34  1  1  0  0  0
 35 22  1  0  0  0  0
 36 24  1  0  0  0  0
  4  5  1  0  0  0  0
  7 19  1  0  0  0  0
 21 16  1  0  0  0  0
  3  8  1  0  0  0  0
 25 12  1  0  0  0  0
M  END
>  <IDNUMBER> (N064-0021)
N064-0021

>  <available> (N064-0021)
29

>  <H_acceptor> (N064-0021)
4

>  <H_donor> (N064-0021)
1

>  <B_rotN> (N064-0021)
5

>  <N_O> (N064-0021)
4

>  <logP> (N064-0021)
6.9

>  <logD> (N064-0021)
5.13

>  <logSw> (N064-0021)
-6.95

>  <PSA> (N064-0021)
63.6

>  <Chiral_centers> (N064-0021)
10

>  <Name> (N064-0021)
9-(acetyloxy)-5a,5b,8,8,11a-pentamethyl-1-(prop-1-en-2-yl)-icosahydro-1H-cyclopenta[a]chrysene-3a-carboxylic acid

>  <Smile> (N064-0021)
CC(OC1C(C2C(C3C(C4(CCC5(C(=O)O)C(C(C(=C)C)CC5)C4CC3)C)(C)CC2)(C)CC1)(C)C)=O

>  <Collection> (N064-0021)
DC

>  <InChI Key> (N064-0021)
ACWNTJJUZAIOLW-ORCOIZESSA-N

>  <PERCENTSP3> (N064-0021)
87.5

$$$$

  -ISIS-  -- StrEd -- 

 31 35  0  0  0  0  0  0  0  0999 V2000
    1.3433   -0.6903    0.0000 C   0  0  1  0  0  0  0  0  0  0  0  0
    0.5001   -1.1904    0.0000 C   0  0  1  0  0  0  0  0  0  0  0  0
   -1.2314   -1.1904    0.0000 C   0  0  2  0  0  0  0  0  0  0  0  0
    1.3433    0.3471    0.0000 C   0  0  0  0  0  0  0  0  0  0  0  0
   -0.3583   -0.6903    0.0000 C   0  0  0  0  0  0  0  0  0  0  0  0
   -1.2314   -2.1382    0.0000 C   0  0  0  0  0  0  0  0  0  0  0  0
    2.2017    0.8544    0.0000 C   0  0  0  0  0  0  0  0  0  0  0  0
   -2.0970   -2.6754    0.0000 C   0  0  2  0  0  0  0  0  0  0  0  0
    2.4405    1.8545    0.0000 C   0  0  2  0  0  0  0  0  0  0  0  0
    3.0821    0.3471    0.0000 C   0  0  0  0  0  0  0  0  0  0  0  0
    0.5001   -2.1382    0.0000 C   0  0  0  0  0  0  0  0  0  0  0  0
    2.2017   -1.1381    0.0000 C   0  0  0  0  0  0  0  0  0  0  0  0
    0.4703    0.8321    0.0000 C   0  0  0  0  0  0  0  0  0  0  0  0
   -2.0970   -0.6903    0.0000 C   0  0  0  0  0  0  0  0  0  0  0  0
   -0.3583    0.3171    0.0000 C   0  0  0  0  0  0  0  0  0  0  0  0
   -0.3583   -2.6383    0.0000 C   0  0  0  0  0  0  0  0  0  0  0  0
    1.7913    2.5859    0.0000 C   0  0  0  0  0  0  0  0  0  0  0  0
    3.4255    1.9442    0.0000 C   0  0  0  0  0  0  0  0  0  0  0  0
   -2.9554   -2.1382    0.0000 C   0  0  0  0  0  0  0  0  0  0  0  0
    3.0821   -0.6529    0.0000 C   0  0  0  0  0  0  0  0  0  0  0  0
    3.8360    1.0336    0.0000 C   0  0  0  0  0  0  0  0  0  0  0  0
   -2.9554   -1.1904    0.0000 C   0  0  0  0  0  0  0  0  0  0  0  0
    2.1345    3.5189    0.0000 C   0  0  0  0  0  0  0  0  0  0  0  0
    1.3433   -1.6381    0.0000 C   0  0  0  0  0  0  0  0  0  0  0  0
    0.5001   -0.2947    0.0000 C   0  0  0  0  0  0  0  0  0  0  0  0
   -1.2314   -0.1903    0.0000 C   0  0  0  0  0  0  0  0  0  0  0  0
   -3.0449   -3.2875    0.0000 C   0  0  0  0  0  0  0  0  0  0  0  0
   -1.5748   -3.5189    0.0000 C   0  0  0  0  0  0  0  0  0  0  0  0
   -3.9778   -2.6754    0.0000 O   0  0  0  0  0  0  0  0  0  0  0  0
    3.9778   -0.1903    0.0000 C   0  0  0  0  0  0  0  0  0  0  0  0
    0.8283    2.4293    0.0000 C   0  0  0  0  0  0  0  0  0  0  0  0
  2  1  1  0  0  0  0
  5  3  1  0  0  0  0
  4  1  1  0  0  0  0
  5  2  1  0  0  0  0
  6 16  1  0  0  0  0
  7  4  1  0  0  0  0
  8  6  1  0  0  0  0
  9  7  1  0  0  0  0
 10 20  1  0  0  0  0
 11  2  1  0  0  0  0
 12  1  1  0  0  0  0
 13  4  1  0  0  0  0
 14  3  1  0  0  0  0
 15 13  1  0  0  0  0
 16 11  1  0  0  0  0
  9 17  1  6  0  0  0
 18  9  1  0  0  0  0
 19  8  1  0  0  0  0
 20 12  1  0  0  0  0
 21 10  1  0  0  0  0
 22 14  1  0  0  0  0
 23 17  2  0  0  0  0
  1 24  1  6  0  0  0
  2 25  1  1  0  0  0
  3 26  1  1  0  0  0
  8 27  1  1  0  0  0
  8 28  1  6  0  0  0
 19 29  1  0  0  0  0
 10 30  1  0  0  0  0
 31 17  1  0  0  0  0
  7 10  1  0  0  0  0
 15  5  1  0  0  0  0
 18 21  1  0  0  0  0
  6  3  1  0  0  0  0
 22 19  1  0  0  0  0
M  END
>  <IDNUMBER> (N064-0028)
N064-0028

>  <available> (N064-0028)
83

>  <H_acceptor> (N064-0028)
1

>  <H_donor> (N064-0028)
1

>  <B_rotN> (N064-0028)
1

>  <N_O> (N064-0028)
1

>  <logP> (N064-0028)
8.12

>  <logD> (N064-0028)
9.85

>  <logSw> (N064-0028)
-10.44

>  <PSA> (N064-0028)
20.23

>  <Chiral_centers> (N064-0028)
10

>  <Name> (N064-0028)
3a,5a,5b,8,8,11a-hexamethyl-1-(prop-1-en-2-yl)-icosahydro-1H-cyclopenta[a]chrysen-9-ol

>  <Smile> (N064-0028)
CC(C1C2C3C(CCC2(CC1)C)(C1(C)C(C2(CCC(C(C2CC1)(C)C)O)C)CC3)C)=C

>  <Collection> (N064-0028)
DC

>  <InChI Key> (N064-0028)
MQYXUWHLBZFQQO-ZKMHYAHDSA-N

>  <PERCENTSP3> (N064-0028)
93.3

$$$$

  -ISIS-  -- StrEd -- 

 33 37  0  0  0  0  0  0  0  0999 V2000
    0.8644   -0.8514    0.0000 C   0  0  1  0  0  0  0  0  0  0  0  0
   -0.0258   -1.3588    0.0000 C   0  0  1  0  0  0  0  0  0  0  0  0
   -1.7890   -1.3588    0.0000 C   0  0  2  0  0  0  0  0  0  0  0  0
    2.6275    0.1719    0.0000 C   0  0  0  0  0  0  0  0  0  0  0  0
    1.7502    0.6880    0.0000 C   0  0  0  0  0  0  0  0  0  0  0  0
    0.8644    0.1807    0.0000 C   0  0  0  0  0  0  0  0  0  0  0  0
   -0.9031   -0.8429    0.0000 C   0  0  0  0  0  0  0  0  0  0  0  0
   -1.7890   -2.3781    0.0000 C   0  0  0  0  0  0  0  0  0  0  0  0
   -2.6748   -2.8940    0.0000 C   0  0  2  0  0  0  0  0  0  0  0  0
    1.9353    1.6771    0.0000 C   0  0  0  0  0  0  0  0  0  0  0  0
    3.5865   -0.3442    0.0000 C   0  0  0  0  0  0  0  0  0  0  0  0
    1.7502   -1.3459    0.0000 C   0  0  0  0  0  0  0  0  0  0  0  0
   -0.0258   -2.3781    0.0000 C   0  0  0  0  0  0  0  0  0  0  0  0
    2.6275   -0.8429    0.0000 C   0  0  0  0  0  0  0  0  0  0  0  0
    3.3929    0.8730    0.0000 C   0  0  0  0  0  0  0  0  0  0  0  0
   -0.0258    0.6968    0.0000 C   0  0  0  0  0  0  0  0  0  0  0  0
   -2.6748   -0.8429    0.0000 C   0  0  0  0  0  0  0  0  0  0  0  0
   -0.9031    0.1807    0.0000 C   0  0  0  0  0  0  0  0  0  0  0  0
   -0.9031   -2.8940    0.0000 C   0  0  0  0  0  0  0  0  0  0  0  0
    2.9585    1.8018    0.0000 C   0  0  0  0  0  0  0  0  0  0  0  0
    1.2469    2.3995    0.0000 C   0  0  0  0  0  0  0  0  0  0  0  0
   -3.5649   -2.3781    0.0000 C   0  0  0  0  0  0  0  0  0  0  0  0
    4.4336    0.1719    0.0000 O   0  0  0  0  0  0  0  0  0  0  0  0
   -3.5649   -1.3588    0.0000 C   0  0  0  0  0  0  0  0  0  0  0  0
    1.5224    3.3499    0.0000 C   0  0  0  0  0  0  0  0  0  0  0  0
    0.8644   -1.7201    0.0000 C   0  0  0  0  0  0  0  0  0  0  0  0
    3.5865   -1.3588    0.0000 O   0  0  0  0  0  0  0  0  0  0  0  0
   -0.0127   -0.4902    0.0000 C   0  0  0  0  0  0  0  0  0  0  0  0
   -1.7890   -0.4601    0.0000 C   0  0  0  0  0  0  0  0  0  0  0  0
   -3.4101   -3.3499    0.0000 C   0  0  0  0  0  0  0  0  0  0  0  0
   -1.9350   -3.3198    0.0000 C   0  0  0  0  0  0  0  0  0  0  0  0
   -4.4336   -2.8854    0.0000 O   0  0  0  0  0  0  0  0  0  0  0  0
    0.2752    2.1716    0.0000 C   0  0  0  0  0  0  0  0  0  0  0  0
  2  1  1  0  0  0  0
  7  3  1  0  0  0  0
  4 14  1  0  0  0  0
  6  5  1  0  0  0  0
  6  1  1  0  0  0  0
  7  2  1  0  0  0  0
  8 19  1  0  0  0  0
  9  8  1  0  0  0  0
 10  5  1  0  0  0  0
  4 11  1  0  0  0  0
 12  1  1  0  0  0  0
 13  2  1  0  0  0  0
 14 12  1  0  0  0  0
 15  4  1  0  0  0  0
 16  6  1  0  0  0  0
 17  3  1  0  0  0  0
 18 16  1  0  0  0  0
 19 13  1  0  0  0  0
 20 10  1  0  0  0  0
 10 21  1  0  0  0  0
 22  9  1  0  0  0  0
 23 11  2  0  0  0  0
 24 17  1  0  0  0  0
 25 21  2  0  0  0  0
  1 26  1  6  0  0  0
 27 11  1  0  0  0  0
  2 28  1  1  0  0  0
  3 29  1  1  0  0  0
  9 30  1  1  0  0  0
  9 31  1  6  0  0  0
 22 32  1  0  0  0  0
 33 21  1  0  0  0  0
  4  5  1  0  0  0  0
  7 18  1  0  0  0  0
 15 20  1  0  0  0  0
  3  8  1  0  0  0  0
 24 22  1  0  0  0  0
M  END
>  <IDNUMBER> (N066-0053)
N066-0053

>  <available> (N066-0053)
322

>  <H_acceptor> (N066-0053)
3

>  <H_donor> (N066-0053)
2

>  <B_rotN> (N066-0053)
4

>  <N_O> (N066-0053)
3

>  <logP> (N066-0053)
6.73

>  <logD> (N066-0053)
5.38

>  <logSw> (N066-0053)
-6.01

>  <PSA> (N066-0053)
57.53

>  <Chiral_centers> (N066-0053)
10

>  <Name> (N066-0053)
9-hydroxy-5a,5b,8,8,11a-pentamethyl-1-(prop-1-en-2-yl)-icosahydro-1H-cyclopenta[a]chrysene-3a-carboxylic acid

>  <Smile> (N066-0053)
CC(C1C2C(CCC3(C2CCC2C3(C)CCC3C2(C)CCC(C3(C)C)O)C)(C(=O)O)CC1)=C

>  <Collection> (N066-0053)
DC

>  <InChI Key> (N066-0053)
QGJZLNKBHJESQX-OGRWGTANSA-N

>  <PERCENTSP3> (N066-0053)
90

$$$$

  -ISIS-  -- StrEd -- 

 32 36  0  0  0  0  0  0  0  0999 V2000
    0.8386   -0.7499    0.0000 C   0  0  1  0  0  0  0  0  0  0  0  0
   -0.0531   -1.2513    0.0000 C   0  0  1  0  0  0  0  0  0  0  0  0
   -1.8102   -1.2513    0.0000 C   0  0  2  0  0  0  0  0  0  0  0  0
    0.8386    0.2929    0.0000 C   0  0  0  0  0  0  0  0  0  0  0  0
   -0.9274   -0.7321    0.0000 C   0  0  0  0  0  0  0  0  0  0  0  0
   -1.8102   -2.2627    0.0000 C   0  0  0  0  0  0  0  0  0  0  0  0
    1.7128    0.7943    0.0000 C   0  0  0  0  0  0  0  0  0  0  0  0
   -2.6978   -2.7732    0.0000 C   0  0  2  0  0  0  0  0  0  0  0  0
    2.5957    0.2795    0.0000 C   0  0  0  0  0  0  0  0  0  0  0  0
    1.8857    1.7704    0.0000 C   0  0  0  0  0  0  0  0  0  0  0  0
   -0.0531   -2.2627    0.0000 C   0  0  0  0  0  0  0  0  0  0  0  0
    1.7128   -1.2424    0.0000 C   0  0  0  0  0  0  0  0  0  0  0  0
   -0.0531    0.8032    0.0000 C   0  0  0  0  0  0  0  0  0  0  0  0
   -2.6978   -0.7321    0.0000 C   0  0  0  0  0  0  0  0  0  0  0  0
   -0.9274    0.2929    0.0000 C   0  0  0  0  0  0  0  0  0  0  0  0
   -0.9274   -2.7732    0.0000 C   0  0  0  0  0  0  0  0  0  0  0  0
    1.1937    2.4627    0.0000 C   0  0  0  0  0  0  0  0  0  0  0  0
    2.9373    1.9124    0.0000 C   0  0  0  0  0  0  0  0  0  0  0  0
   -3.5895   -2.2627    0.0000 C   0  0  0  0  0  0  0  0  0  0  0  0
    2.5957   -0.7321    0.0000 C   0  0  0  0  0  0  0  0  0  0  0  0
    3.3632    0.9719    0.0000 C   0  0  0  0  0  0  0  0  0  0  0  0
   -3.5895   -1.2513    0.0000 C   0  0  0  0  0  0  0  0  0  0  0  0
    3.5542   -0.2528    0.0000 C   0  0  0  0  0  0  0  0  0  0  0  0
    1.4378    3.4122    0.0000 C   0  0  0  0  0  0  0  0  0  0  0  0
    4.4504    0.1642    0.0000 O   0  0  0  0  0  0  0  0  0  0  0  0
    0.8386   -1.6019    0.0000 C   0  0  0  0  0  0  0  0  0  0  0  0
   -0.0444   -0.3905    0.0000 C   0  0  0  0  0  0  0  0  0  0  0  0
   -1.8102   -0.3592    0.0000 C   0  0  0  0  0  0  0  0  0  0  0  0
   -3.4742   -3.3499    0.0000 C   0  0  0  0  0  0  0  0  0  0  0  0
   -2.1075   -3.4122    0.0000 C   0  0  0  0  0  0  0  0  0  0  0  0
   -4.4504   -2.7732    0.0000 O   0  0  0  0  0  0  0  0  0  0  0  0
    0.2439    2.2187    0.0000 C   0  0  0  0  0  0  0  0  0  0  0  0
  2  1  1  0  0  0  0
  5  3  1  0  0  0  0
  4  1  1  0  0  0  0
  5  2  1  0  0  0  0
  6 16  1  0  0  0  0
  7  4  1  0  0  0  0
  8  6  1  0  0  0  0
  9 20  1  0  0  0  0
 10  7  1  0  0  0  0
 11  2  1  0  0  0  0
 12  1  1  0  0  0  0
 13  4  1  0  0  0  0
 14  3  1  0  0  0  0
 15 13  1  0  0  0  0
 16 11  1  0  0  0  0
 10 17  1  0  0  0  0
 18 10  1  0  0  0  0
 19  8  1  0  0  0  0
 20 12  1  0  0  0  0
 21  9  1  0  0  0  0
 22 14  1  0  0  0  0
  9 23  1  0  0  0  0
 24 17  2  0  0  0  0
 25 23  2  0  0  0  0
  1 26  1  6  0  0  0
  2 27  1  1  0  0  0
  3 28  1  1  0  0  0
  8 29  1  1  0  0  0
  8 30  1  6  0  0  0
 19 31  1  0  0  0  0
 32 17  1  0  0  0  0
  7  9  1  0  0  0  0
  5 15  1  0  0  0  0
 18 21  1  0  0  0  0
  6  3  1  0  0  0  0
 19 22  1  0  0  0  0
M  END
>  <IDNUMBER> (N066-0070)
N066-0070

>  <available> (N066-0070)
1426

>  <H_acceptor> (N066-0070)
2

>  <H_donor> (N066-0070)
1

>  <B_rotN> (N066-0070)
3

>  <N_O> (N066-0070)
2

>  <logP> (N066-0070)
6.57

>  <logD> (N066-0070)
8.58

>  <logSw> (N066-0070)
-9.38

>  <PSA> (N066-0070)
37.3

>  <Chiral_centers> (N066-0070)
10

>  <Name> (N066-0070)
9-hydroxy-5a,5b,8,8,11a-pentamethyl-1-(prop-1-en-2-yl)-icosahydro-1H-cyclopenta[a]chrysene-3a-carbaldehyde

>  <Smile> (N066-0070)
CC(C1C2C3C(CCC2(CC1)C=O)(C1(C)C(C2(CCC(C(C2CC1)(C)C)O)C)CC3)C)=C

>  <Collection> (N066-0070)
DC

>  <InChI Key> (N066-0070)
FELCJAPFJOPHSD-LQHCPYKRSA-N

>  <PERCENTSP3> (N066-0070)
90

$$$$

  -ISIS-  -- StrEd -- 

 12 13  0  0  0  0  0  0  0  0999 V2000
    0.8503   -1.0050    0.0000 O   0  0  0  0  0  0  0  0  0  0  0  0
   -0.0369   -0.5109    0.0000 C   0  0  0  0  0  0  0  0  0  0  0  0
    1.7042   -0.5109    0.0000 C   0  0  0  0  0  0  0  0  0  0  0  0
    0.8503    1.0050    0.0000 C   0  0  0  0  0  0  0  0  0  0  0  0
    1.7042    0.5042    0.0000 C   0  0  0  0  0  0  0  0  0  0  0  0
   -0.0369    0.5042    0.0000 C   0  0  0  0  0  0  0  0  0  0  0  0
   -0.9310   -1.0050    0.0000 C   0  0  0  0  0  0  0  0  0  0  0  0
    2.5780   -1.0050    0.0000 O   0  0  0  0  0  0  0  0  0  0  0  0
   -0.9310    1.0050    0.0000 C   0  0  0  0  0  0  0  0  0  0  0  0
   -1.8117   -0.5109    0.0000 C   0  0  0  0  0  0  0  0  0  0  0  0
   -1.8117    0.5042    0.0000 C   0  0  0  0  0  0  0  0  0  0  0  0
   -2.5780   -0.9244    0.0000 O   0  0  0  0  0  0  0  0  0  0  0  0
  2  1  1  0  0  0  0
  3  1  1  0  0  0  0
  4  5  2  0  0  0  0
  5  3  1  0  0  0  0
  6  2  2  0  0  0  0
  7  2  1  0  0  0  0
  8  3  2  0  0  0  0
  9  6  1  0  0  0  0
 10  7  2  0  0  0  0
 11 10  1  0  0  0  0
 12 10  1  0  0  0  0
  4  6  1  0  0  0  0
  9 11  2  0  0  0  0
M  END
>  <IDNUMBER> (0099-0261)
0099-0261

>  <available> (0099-0261)
1574

>  <H_acceptor> (0099-0261)
3

>  <H_donor> (0099-0261)
1

>  <B_rotN> (0099-0261)
1

>  <N_O> (0099-0261)
3

>  <logP> (0099-0261)
1.58

>  <logD> (0099-0261)
1.35

>  <logSw> (0099-0261)
-0.38

>  <PSA> (0099-0261)
46.53

>  <Chiral_centers> (0099-0261)
0

>  <Name> (0099-0261)
7-hydroxy-2H-chromen-2-one

>  <Smile> (0099-0261)
Oc1cc2OC(C=Cc2cc1)=O

>  <Collection> (0099-0261)
DC

>  <InChI Key> (0099-0261)
ORHBXUUXSCNDEV-UHFFFAOYSA-N

>  <PERCENTSP3> (0099-0261)
0

$$$$

  -ISIS-  -- StrEd -- 

 70 76  0  0  0  0  0  0  0  0999 V2000
    2.6468    1.9357    0.0000 C   0  0  0  0  0  0  0  0  0  0  0  0
    1.8977    0.6229    0.0000 C   0  0  1  0  0  0  0  0  0  0  0  0
    2.6468    1.0436    0.0000 C   0  0  2  0  0  0  0  0  0  0  0  0
    0.3830    0.6229    0.0000 C   0  0  2  0  0  0  0  0  0  0  0  0
   -2.7054   -2.7686    0.0000 C   0  0  0  0  0  0  0  0  0  0  0  0
   -4.4812   -4.7885    0.0000 C   0  0  0  0  0  0  0  0  0  0  0  0
   -3.9007   -1.1782    0.0000 C   0  0  0  0  0  0  0  0  0  0  0  0
    1.1489    1.0436    0.0000 C   0  0  0  0  0  0  0  0  0  0  0  0
   -2.6886   -5.6214    0.0000 C   0  0  0  0  0  0  0  0  0  0  0  0
   -2.0576   -2.0027    0.0000 C   0  0  0  0  0  0  0  0  0  0  0  0
   -3.3112   -4.7885    0.0000 O   0  0  0  0  0  0  0  0  0  0  0  0
   -2.7054   -1.1782    0.0000 O   0  0  0  0  0  0  0  0  0  0  0  0
    1.8977    2.3984    0.0000 C   0  0  0  0  0  0  0  0  0  0  0  0
   -3.3112   -6.4462    0.0000 C   0  0  0  0  0  0  0  0  0  0  0  0
    1.1489    1.9357    0.0000 C   0  0  0  0  0  0  0  0  0  0  0  0
   -3.9007   -2.7686    0.0000 C   0  0  0  0  0  0  0  0  0  0  0  0
   -4.5485   -2.0027    0.0000 C   0  0  0  0  0  0  0  0  0  0  0  0
   -5.1714   -5.6214    0.0000 C   0  0  0  0  0  0  0  0  0  0  0  0
    0.3830   -0.3450    0.0000 C   0  0  0  0  0  0  0  0  0  0  0  0
    3.6144    2.6004    0.0000 C   0  0  0  0  0  0  0  0  0  0  0  0
   -4.4812   -6.4462    0.0000 C   0  0  0  0  0  0  0  0  0  0  0  0
   -2.6886   -4.1403    0.0000 O   0  0  0  0  0  0  0  0  0  0  0  0
   -0.4248   -0.8332    0.0000 C   0  0  2  0  0  0  0  0  0  0  0  0
    4.5656    4.2163    0.0000 C   0  0  1  0  0  0  0  0  0  0  0  0
    3.6144    3.6944    0.0000 C   0  0  0  0  0  0  0  0  0  0  0  0
    4.5656    2.0535    0.0000 C   0  0  1  0  0  0  0  0  0  0  0  0
   -2.0576   -0.8332    0.0000 O   0  0  0  0  0  0  0  0  0  0  0  0
   -3.9007   -0.6731    0.0000 C   0  0  0  0  0  0  0  0  0  0  0  0
   -4.4812   -4.2666    0.0000 C   0  0  0  0  0  0  0  0  0  0  0  0
   -1.1907   -0.3450    0.0000 C   0  0  0  0  0  0  0  0  0  0  0  0
    1.8977   -0.3450    0.0000 C   0  0  0  0  0  0  0  0  0  0  0  0
    5.4743    4.8474    0.0000 C   0  0  0  0  0  0  0  0  0  0  0  0
   -0.4248    1.0436    0.0000 C   0  0  0  0  0  0  0  0  0  0  0  0
    3.6144    0.4041    0.0000 C   0  0  0  0  0  0  0  0  0  0  0  0
    1.1489   -0.8332    0.0000 C   0  0  0  0  0  0  0  0  0  0  0  0
    0.1979    2.4826    0.0000 O   0  0  0  0  0  0  0  0  0  0  0  0
    4.5656    0.9426    0.0000 C   0  0  0  0  0  0  0  0  0  0  0  0
   -1.1907    0.6229    0.0000 C   0  0  0  0  0  0  0  0  0  0  0  0
    5.5166    3.6944    0.0000 C   0  0  0  0  0  0  0  0  0  0  0  0
    5.5166    2.6004    0.0000 C   0  0  0  0  0  0  0  0  0  0  0  0
   -3.8586   -3.6776    0.0000 O   0  0  0  0  0  0  0  0  0  0  0  0
   -3.2946   -0.3029    0.0000 O   0  0  0  0  0  0  0  0  0  0  0  0
    5.4743    6.0171    0.0000 O   0  0  0  0  0  0  0  0  0  0  0  0
   -3.3112   -7.2710    0.0000 O   0  0  0  0  0  0  0  0  0  0  0  0
   -5.1714   -6.6650    0.0000 O   0  0  0  0  0  0  0  0  0  0  0  0
   -4.5230   -2.9285    0.0000 O   0  0  0  0  0  0  0  0  0  0  0  0
   -3.9007   -1.9441    0.0000 O   0  0  0  0  0  0  0  0  0  0  0  0
   -4.4812   -5.6214    0.0000 O   0  0  0  0  0  0  0  0  0  0  0  0
    1.8977    1.4729    0.0000 C   0  0  0  0  0  0  0  0  0  0  0  0
    0.3830    1.5318    0.0000 C   0  0  0  0  0  0  0  0  0  0  0  0
    2.6636    0.0168    0.0000 C   0  0  0  0  0  0  0  0  0  0  0  0
   -4.4055   -0.4041    0.0000 O   0  0  0  0  0  0  0  0  0  0  0  0
   -5.2132   -3.8795    0.0000 O   0  0  0  0  0  0  0  0  0  0  0  0
    6.5431    4.2163    0.0000 O   0  0  0  0  0  0  0  0  0  0  0  0
   -0.9719   -1.9186    0.0000 C   0  0  0  0  0  0  0  0  0  0  0  0
    0.2399   -1.7422    0.0000 C   0  0  0  0  0  0  0  0  0  0  0  0
    3.6144    4.8221    0.0000 C   0  0  0  0  0  0  0  0  0  0  0  0
    5.6342    1.4138    0.0000 C   0  0  0  0  0  0  0  0  0  0  0  0
   -4.4055    0.5640    0.0000 C   0  0  0  0  0  0  0  0  0  0  0  0
   -6.1979   -3.8795    0.0000 C   0  0  0  0  0  0  0  0  0  0  0  0
    7.3932    4.7635    0.0000 C   0  0  0  0  0  0  0  0  0  0  0  0
    7.3508    5.7561    0.0000 C   0  0  0  0  0  0  0  0  0  0  0  0
   -6.6862   -4.7293    0.0000 C   0  0  0  0  0  0  0  0  0  0  0  0
   -5.2553    1.0688    0.0000 C   0  0  0  0  0  0  0  0  0  0  0  0
   -7.6537   -4.7293    0.0000 C   0  0  0  0  0  0  0  0  0  0  0  0
    8.1588    6.2782    0.0000 C   0  0  0  0  0  0  0  0  0  0  0  0
   -5.2553    2.0535    0.0000 C   0  0  0  0  0  0  0  0  0  0  0  0
    8.1168    7.2710    0.0000 C   0  0  0  0  0  0  0  0  0  0  0  0
   -8.1588   -5.5796    0.0000 C   0  0  0  0  0  0  0  0  0  0  0  0
   -6.0969    2.5417    0.0000 C   0  0  0  0  0  0  0  0  0  0  0  0
  2  3  1  0  0  0  0
  3  1  1  0  0  0  0
  8  4  1  0  0  0  0
  5 10  1  0  0  0  0
  6 11  1  0  0  0  0
  7 12  1  0  0  0  0
  8 15  1  0  0  0  0
  9 22  1  0  0  0  0
 10 27  1  0  0  0  0
 11  9  1  0  0  0  0
 12 10  1  0  0  0  0
 13  1  2  0  0  0  0
 14  9  1  0  0  0  0
 15 13  1  0  0  0  0
 16  5  1  0  0  0  0
 17  7  1  0  0  0  0
 18 21  1  0  0  0  0
 19  4  1  0  0  0  0
 20  1  1  0  0  0  0
 21 14  1  0  0  0  0
  5 22  1  0  0  0  0
 23 19  1  0  0  0  0
 24 25  1  0  0  0  0
 25 20  1  0  0  0  0
 26 20  1  0  0  0  0
 30 27  1  0  0  0  0
  7 28  1  0  0  0  0
  6 29  1  0  0  0  0
 30 38  1  0  0  0  0
 31  2  1  0  0  0  0
 32 24  1  0  0  0  0
 33  4  1  0  0  0  0
 34  3  1  0  0  0  0
 35 31  1  0  0  0  0
 36 15  2  0  0  0  0
 37 26  1  0  0  0  0
 38 33  1  0  0  0  0
 39 40  1  0  0  0  0
 40 26  1  0  0  0  0
 41 29  2  0  0  0  0
 42 28  2  0  0  0  0
 43 32  2  0  0  0  0
 14 44  1  0  0  0  0
 18 45  1  0  0  0  0
 17 46  1  0  0  0  0
 16 47  1  0  0  0  0
 21 48  1  0  0  0  0
  2 49  1  1  0  0  0
  4 50  1  1  0  0  0
  3 51  1  6  0  0  0
 52 28  1  0  0  0  0
 53 29  1  0  0  0  0
 54 32  1  0  0  0  0
 23 55  1  1  0  0  0
 23 56  1  6  0  0  0
 24 57  1  6  0  0  0
 26 58  1  1  0  0  0
 59 52  1  0  0  0  0
 60 53  1  0  0  0  0
 61 54  1  0  0  0  0
 62 61  1  0  0  0  0
 63 60  1  0  0  0  0
 64 59  1  0  0  0  0
 65 63  1  0  0  0  0
 66 62  1  0  0  0  0
 67 64  1  0  0  0  0
 68 66  1  0  0  0  0
 69 65  1  0  0  0  0
 70 67  1  0  0  0  0
 37 34  1  0  0  0  0
  8  2  1  0  0  0  0
 39 24  1  0  0  0  0
 19 35  1  0  0  0  0
 30 23  1  0  0  0  0
 16 17  1  0  0  0  0
 18  6  1  0  0  0  0
M  END
>  <IDNUMBER> (N016-0008)
N016-0008

>  <available> (N016-0008)
432

>  <H_acceptor> (N016-0008)
16

>  <H_donor> (N016-0008)
5

>  <B_rotN> (N016-0008)
24

>  <N_O> (N016-0008)
16

>  <logP> (N016-0008)
6.83

>  <logD> (N016-0008)
6.6

>  <logSw> (N016-0008)
-8.46

>  <PSA> (N016-0008)
234.04

>  <Chiral_centers> (N016-0008)
19

>  <Name> (N016-0008)
butyl 5-{[6-(butoxycarbonyl)-3,4,5-trihydroxyoxan-2-yl]oxy}-6-{[11-(butoxycarbonyl)-4,4,6a,6b,8a,11,14b-heptamethyl-14-oxo-1,2,3,4,4a,5,6,6a,6b,7,8,8a,9,10,11,12,12a,14,14a,14b-icosahydropicen-3-yl]ox
y}-3,4-dihydroxyoxane-2-carboxylate

>  <Smile> (N016-0008)
CCCCOC(C1OC(C(OC2OC(C(=O)OCCCC)C(C(C2O)O)O)C(C1O)O)OC1C(C2C(C3C(C)(CC2)C2(C(C4CC(C(=O)OCCCC)(C)CCC4(CC2)C)=CC3=O)C)(C)CC1)(C)C)=O

>  <Collection> (N016-0008)
DC

>  <InChI Key> (N016-0008)
OEHZWWRJBNGPNB-KEICPYMMSA-N

>  <PERCENTSP3> (N016-0008)
88.9

$$$$

  -ISIS-  -- StrEd -- 

 61 67  0  0  0  0  0  0  0  0999 V2000
    2.0440    2.5564    0.0000 C   0  0  0  0  0  0  0  0  0  0  0  0
    1.2968    1.2466    0.0000 C   0  0  1  0  0  0  0  0  0  0  0  0
    2.0440    1.6663    0.0000 C   0  0  2  0  0  0  0  0  0  0  0  0
   -0.2142    1.2466    0.0000 C   0  0  2  0  0  0  0  0  0  0  0  0
   -5.0662   -4.1511    0.0000 C   0  0  0  0  0  0  0  0  0  0  0  0
   -4.4871   -0.5497    0.0000 C   0  0  0  0  0  0  0  0  0  0  0  0
   -3.2947   -2.1363    0.0000 C   0  0  0  0  0  0  0  0  0  0  0  0
    0.5497    1.6663    0.0000 C   0  0  0  0  0  0  0  0  0  0  0  0
   -3.2783   -4.9823    0.0000 C   0  0  0  0  0  0  0  0  0  0  0  0
   -2.6486   -1.3725    0.0000 C   0  0  0  0  0  0  0  0  0  0  0  0
   -3.8992   -4.1511    0.0000 O   0  0  0  0  0  0  0  0  0  0  0  0
   -3.2947   -0.5497    0.0000 O   0  0  0  0  0  0  0  0  0  0  0  0
    1.2968    3.0178    0.0000 C   0  0  0  0  0  0  0  0  0  0  0  0
   -3.8992   -5.8049    0.0000 C   0  0  0  0  0  0  0  0  0  0  0  0
    0.5497    2.5564    0.0000 C   0  0  0  0  0  0  0  0  0  0  0  0
   -5.1334   -1.3725    0.0000 C   0  0  0  0  0  0  0  0  0  0  0  0
   -4.4871   -2.1363    0.0000 C   0  0  0  0  0  0  0  0  0  0  0  0
   -5.7547   -4.9823    0.0000 C   0  0  0  0  0  0  0  0  0  0  0  0
   -0.2142    0.2813    0.0000 C   0  0  0  0  0  0  0  0  0  0  0  0
    3.0095    3.2192    0.0000 C   0  0  0  0  0  0  0  0  0  0  0  0
   -5.0662   -5.8049    0.0000 C   0  0  0  0  0  0  0  0  0  0  0  0
   -3.2783   -3.5048    0.0000 O   0  0  0  0  0  0  0  0  0  0  0  0
   -1.0200   -0.2057    0.0000 C   0  0  1  0  0  0  0  0  0  0  0  0
   -5.0662   -3.6306    0.0000 C   0  0  0  0  0  0  0  0  0  0  0  0
   -4.4871   -0.0462    0.0000 C   0  0  0  0  0  0  0  0  0  0  0  0
    3.9581    4.8311    0.0000 C   0  0  1  0  0  0  0  0  0  0  0  0
    3.0095    4.3106    0.0000 C   0  0  0  0  0  0  0  0  0  0  0  0
    3.9581    2.6738    0.0000 C   0  0  1  0  0  0  0  0  0  0  0  0
   -2.6486   -0.2057    0.0000 O   0  0  0  0  0  0  0  0  0  0  0  0
   -1.7839    0.2813    0.0000 C   0  0  0  0  0  0  0  0  0  0  0  0
    1.2968    0.2813    0.0000 C   0  0  0  0  0  0  0  0  0  0  0  0
    4.8646    5.4607    0.0000 C   0  0  0  0  0  0  0  0  0  0  0  0
   -1.0200    1.6663    0.0000 C   0  0  0  0  0  0  0  0  0  0  0  0
    3.0095    1.0285    0.0000 C   0  0  0  0  0  0  0  0  0  0  0  0
    0.5497   -0.2057    0.0000 C   0  0  0  0  0  0  0  0  0  0  0  0
   -0.3987    3.1019    0.0000 O   0  0  0  0  0  0  0  0  0  0  0  0
    3.9581    1.5657    0.0000 C   0  0  0  0  0  0  0  0  0  0  0  0
   -1.7839    1.2466    0.0000 C   0  0  0  0  0  0  0  0  0  0  0  0
   -3.8827    0.3230    0.0000 O   0  0  0  0  0  0  0  0  0  0  0  0
   -4.4453   -3.0432    0.0000 O   0  0  0  0  0  0  0  0  0  0  0  0
    4.9067    4.3106    0.0000 C   0  0  0  0  0  0  0  0  0  0  0  0
    4.9067    3.2192    0.0000 C   0  0  0  0  0  0  0  0  0  0  0  0
   -5.7964   -3.2445    0.0000 N   0  0  0  0  0  0  0  0  0  0  0  0
   -4.9906    0.2222    0.0000 N   0  0  0  0  0  0  0  0  0  0  0  0
    4.8646    6.6277    0.0000 O   0  0  0  0  0  0  0  0  0  0  0  0
   -3.8992   -6.6277    0.0000 O   0  0  0  0  0  0  0  0  0  0  0  0
   -5.1082   -2.2961    0.0000 O   0  0  0  0  0  0  0  0  0  0  0  0
   -4.4871   -1.3138    0.0000 O   0  0  0  0  0  0  0  0  0  0  0  0
   -5.7547   -6.0231    0.0000 O   0  0  0  0  0  0  0  0  0  0  0  0
   -5.0662   -4.9823    0.0000 O   0  0  0  0  0  0  0  0  0  0  0  0
    1.2968    2.0946    0.0000 C   0  0  0  0  0  0  0  0  0  0  0  0
   -0.2142    2.1533    0.0000 C   0  0  0  0  0  0  0  0  0  0  0  0
    2.0609    0.6423    0.0000 C   0  0  0  0  0  0  0  0  0  0  0  0
    5.9307    4.8311    0.0000 O   0  0  0  0  0  0  0  0  0  0  0  0
   -4.9906    1.1880    0.0000 N   0  0  0  0  0  0  0  0  0  0  0  0
   -6.7787   -3.2445    0.0000 N   0  0  0  0  0  0  0  0  0  0  0  0
   -0.3567   -1.1123    0.0000 C   0  0  0  0  0  0  0  0  0  0  0  0
   -1.5657   -1.2886    0.0000 C   0  0  0  0  0  0  0  0  0  0  0  0
    3.0095    5.4357    0.0000 C   0  0  0  0  0  0  0  0  0  0  0  0
    5.0241    2.0357    0.0000 C   0  0  0  0  0  0  0  0  0  0  0  0
    6.7787    5.3768    0.0000 C   0  0  0  0  0  0  0  0  0  0  0  0
  2  3  1  0  0  0  0
  3  1  1  0  0  0  0
  8  4  1  0  0  0  0
  5 11  1  0  0  0  0
  6 12  1  0  0  0  0
  7 10  1  0  0  0  0
  8 15  1  0  0  0  0
  9 22  1  0  0  0  0
 10 29  1  0  0  0  0
 11  9  1  0  0  0  0
 12 10  1  0  0  0  0
 13  1  2  0  0  0  0
 14  9  1  0  0  0  0
 15 13  1  0  0  0  0
 16  6  1  0  0  0  0
 17  7  1  0  0  0  0
 18 21  1  0  0  0  0
 19  4  1  0  0  0  0
 20  1  1  0  0  0  0
 21 14  1  0  0  0  0
  7 22  1  0  0  0  0
 23 19  1  0  0  0  0
  5 24  1  0  0  0  0
  6 25  1  0  0  0  0
 26 27  1  0  0  0  0
 27 20  1  0  0  0  0
 28 20  1  0  0  0  0
 30 29  1  0  0  0  0
 30 38  1  0  0  0  0
 31  2  1  0  0  0  0
 32 26  1  0  0  0  0
 33  4  1  0  0  0  0
 34  3  1  0  0  0  0
 35 31  1  0  0  0  0
 36 15  2  0  0  0  0
 37 28  1  0  0  0  0
 38 33  1  0  0  0  0
 39 25  2  0  0  0  0
 40 24  2  0  0  0  0
 41 42  1  0  0  0  0
 42 28  1  0  0  0  0
 43 24  1  0  0  0  0
 44 25  1  0  0  0  0
 45 32  2  0  0  0  0
 14 46  1  0  0  0  0
 16 47  1  0  0  0  0
 17 48  1  0  0  0  0
 18 49  1  0  0  0  0
 21 50  1  0  0  0  0
  2 51  1  1  0  0  0
  4 52  1  1  0  0  0
  3 53  1  6  0  0  0
 54 32  1  0  0  0  0
 55 44  1  0  0  0  0
 56 43  1  0  0  0  0
 23 57  1  6  0  0  0
 23 58  1  1  0  0  0
 26 59  1  6  0  0  0
 28 60  1  1  0  0  0
 61 54  1  0  0  0  0
 34 37  1  0  0  0  0
  2  8  1  0  0  0  0
 26 41  1  0  0  0  0
 35 19  1  0  0  0  0
 23 30  1  0  0  0  0
 16 17  1  0  0  0  0
  5 18  1  0  0  0  0
M  END
>  <IDNUMBER> (N016-0045)
N016-0045

>  <available> (N016-0045)
410

>  <H_acceptor> (N016-0045)
16

>  <H_donor> (N016-0045)
11

>  <B_rotN> (N016-0045)
15

>  <N_O> (N016-0045)
18

>  <logP> (N016-0045)
0.96

>  <logD> (N016-0045)
0.84

>  <logSw> (N016-0045)
-4.86

>  <PSA> (N016-0045)
291.68

>  <Chiral_centers> (N016-0045)
19

>  <Name> (N016-0045)
methyl 10-{[6-(hydrazinecarbonyl)-3-{[6-(hydrazinecarbonyl)-3,4,5-trihydroxyoxan-2-yl]oxy}-4,5-dihydroxyoxan-2-yl]oxy}-2,4a,6a,6b,9,9,12a-heptamethyl-13-oxo-1,2,3,4,4a,5,6,6a,6b,7,8,8a,9,10,11,12,12a,
12b,13,14b-icosahydropicene-2-carboxylate

>  <Smile> (N016-0045)
COC(C1(CC2C3=CC(C4C(C)(CCC5C4(C)CCC(C5(C)C)OC4C(OC5OC(C(C(C5O)O)O)C(=O)NN)C(C(C(O4)C(=O)NN)O)O)C3(C)CCC2(C)CC1)=O)C)=O

>  <Collection> (N016-0045)
DC

>  <InChI Key> (N016-0045)
PQBITFIHFKWRFS-CFEQAHMKSA-N

>  <PERCENTSP3> (N016-0045)
86

$$$$

  -ISIS-  -- StrEd -- 

 42 47  0  0  0  0  0  0  0  0999 V2000
   -0.8950   -1.1945    0.0000 C   0  0  2  0  0  0  0  0  0  0  0  0
    1.6890   -0.6930    0.0000 C   0  0  1  0  0  0  0  0  0  0  0  0
    0.8428   -1.1945    0.0000 C   0  0  1  0  0  0  0  0  0  0  0  0
    3.4342    0.3483    0.0000 C   0  0  0  0  0  0  0  0  0  0  0  0
    2.5504    0.8575    0.0000 C   0  0  0  0  0  0  0  0  0  0  0  0
    1.6890    0.3483    0.0000 C   0  0  0  0  0  0  0  0  0  0  0  0
   -2.6252   -1.1945    0.0000 C   0  0  0  0  0  0  0  0  0  0  0  0
   -0.0187   -0.6930    0.0000 C   0  0  0  0  0  0  0  0  0  0  0  0
   -0.8950   -2.1457    0.0000 C   0  0  0  0  0  0  0  0  0  0  0  0
   -1.7640   -2.6851    0.0000 C   0  0  2  0  0  0  0  0  0  0  0  0
   -2.6252   -2.1457    0.0000 C   0  0  0  0  0  0  0  0  0  0  0  0
   -1.7640   -0.6930    0.0000 C   0  0  0  0  0  0  0  0  0  0  0  0
    2.7900    1.8612    0.0000 C   0  0  1  0  0  0  0  0  0  0  0  0
   -3.4865   -0.7452    0.0000 C   0  0  0  0  0  0  0  0  0  0  0  0
    4.3329   -0.1911    0.0000 C   0  0  0  0  0  0  0  0  0  0  0  0
    2.5504   -1.1423    0.0000 C   0  0  0  0  0  0  0  0  0  0  0  0
    0.8428   -2.1457    0.0000 C   0  0  0  0  0  0  0  0  0  0  0  0
    3.4342   -0.6553    0.0000 C   0  0  0  0  0  0  0  0  0  0  0  0
    4.1908    1.0372    0.0000 C   0  0  0  0  0  0  0  0  0  0  0  0
    0.8127    0.8351    0.0000 C   0  0  0  0  0  0  0  0  0  0  0  0
   -0.0187   -2.6476    0.0000 C   0  0  0  0  0  0  0  0  0  0  0  0
   -0.0187    0.3183    0.0000 C   0  0  0  0  0  0  0  0  0  0  0  0
    3.7787    1.9513    0.0000 C   0  0  0  0  0  0  0  0  0  0  0  0
    2.1384    2.5952    0.0000 C   0  0  0  0  0  0  0  0  0  0  0  0
   -3.6513   -2.6851    0.0000 O   0  0  0  0  0  0  0  0  0  0  0  0
   -3.4865    0.2433    0.0000 C   0  0  0  0  0  0  0  0  0  0  0  0
    4.3480   -1.1798    0.0000 O   0  0  0  0  0  0  0  0  0  0  0  0
    2.4830    3.5315    0.0000 C   0  0  0  0  0  0  0  0  0  0  0  0
   -0.8950   -0.1911    0.0000 C   0  0  0  0  0  0  0  0  0  0  0  0
   -4.3329    0.7301    0.0000 C   0  0  0  0  0  0  0  0  0  0  0  0
    1.6890   -1.6440    0.0000 C   0  0  0  0  0  0  0  0  0  0  0  0
    0.8428   -0.2958    0.0000 C   0  0  0  0  0  0  0  0  0  0  0  0
    5.1943    0.2958    0.0000 O   0  0  0  0  0  0  0  0  0  0  0  0
   -2.7152   -3.2994    0.0000 C   0  0  0  0  0  0  0  0  0  0  0  0
   -1.2397   -3.5315    0.0000 C   0  0  0  0  0  0  0  0  0  0  0  0
   -4.3329    1.7338    0.0000 C   0  0  0  0  0  0  0  0  0  0  0  0
   -5.1943    2.2207    0.0000 I   0  0  0  0  0  0  0  0  0  0  0  0
    1.1721    2.4381    0.0000 C   0  0  0  0  0  0  0  0  0  0  0  0
   -2.6252    1.7563    0.0000 C   0  0  0  0  0  0  0  0  0  0  0  0
   -2.6252    0.7451    0.0000 C   0  0  0  0  0  0  0  0  0  0  0  0
   -3.4492    2.2358    0.0000 C   0  0  0  0  0  0  0  0  0  0  0  0
    5.1943    1.2845    0.0000 C   0  0  0  0  0  0  0  0  0  0  0  0
  2  3  1  0  0  0  0
  8  3  1  0  0  0  0
  5  4  1  0  0  0  0
  6  5  1  0  0  0  0
  6 20  1  0  0  0  0
  7 12  1  0  0  0  0
  8  1  1  0  0  0  0
  9  1  1  0  0  0  0
 10  9  1  0  0  0  0
 11  7  1  0  0  0  0
 12  1  1  0  0  0  0
 13  5  1  0  0  0  0
 14  7  2  0  0  0  0
  4 15  1  0  0  0  0
 16  2  1  0  0  0  0
 17 21  1  0  0  0  0
 18 16  1  0  0  0  0
 19  4  1  0  0  0  0
 20 22  1  0  0  0  0
 21  9  1  0  0  0  0
 22  8  1  0  0  0  0
 23 13  1  0  0  0  0
 13 24  1  6  0  0  0
 25 11  2  0  0  0  0
 26 14  1  0  0  0  0
 27 15  2  0  0  0  0
 28 24  2  0  0  0  0
  1 29  1  1  0  0  0
 30 26  1  0  0  0  0
  2 31  1  6  0  0  0
  3 32  1  1  0  0  0
 33 15  1  0  0  0  0
 10 34  1  1  0  0  0
 10 35  1  6  0  0  0
 36 30  2  0  0  0  0
 37 36  1  0  0  0  0
 38 24  1  0  0  0  0
 39 40  1  0  0  0  0
 40 26  2  0  0  0  0
 41 39  2  0  0  0  0
 42 33  1  0  0  0  0
 10 11  1  0  0  0  0
 17  3  1  0  0  0  0
  6  2  1  0  0  0  0
  4 18  1  0  0  0  0
 41 36  1  0  0  0  0
 19 23  1  0  0  0  0
M  END
>  <IDNUMBER> (N064-0051)
N064-0051

>  <available> (N064-0051)
164

>  <H_acceptor> (N064-0051)
4

>  <H_donor> (N064-0051)
0

>  <B_rotN> (N064-0051)
4

>  <N_O> (N064-0051)
3

>  <logP> (N064-0051)
9.22

>  <logD> (N064-0051)
10.6

>  <logSw> (N064-0051)
-9.33

>  <PSA> (N064-0051)
43.37

>  <Chiral_centers> (N064-0051)
9

>  <Name> (N064-0051)
methyl (10E)-10-[(3-iodophenyl)methylidene]-5a,5b,8,8,11a-pentamethyl-9-oxo-1-(prop-1-en-2-yl)-icosahydro-1H-cyclopenta[a]chrysene-3a-carboxylate

>  <Smile> (N064-0051)
COC(C12CCC3(C4(CCC5C(CC(C(C5(C)C)=O)=Cc5cc(I)ccc5)(C4CCC3C1C(CC2)C(=C)C)C)C)C)=O

>  <Collection> (N064-0051)
DC

>  <InChI Key> (N064-0051)
BCTSRFZIGSWYBF-UNEVLXCSSA-N

>  <PERCENTSP3> (N064-0051)
68.4

$$$$

  -ISIS-  -- StrEd -- 

 21 25  0  0  0  0  0  0  0  0999 V2000
   -0.4752    0.1525    0.0000 C   0  0  0  0  0  0  0  0  0  0  0  0
    0.0488   -0.5670    0.0000 C   0  0  0  0  0  0  0  0  0  0  0  0
    0.2118    0.7565    0.0000 C   0  0  0  0  0  0  0  0  0  0  0  0
   -0.4752   -1.3398    0.0000 N   0  0  0  0  0  0  0  0  0  0  0  0
   -0.1435    1.5885    0.0000 N   0  0  0  0  0  0  0  0  0  0  0  0
    1.5974   -0.0459    0.0000 C   0  0  0  0  0  0  0  0  0  0  0  0
   -1.3576   -0.1259    0.0000 C   0  0  0  0  0  0  0  0  0  0  0  0
    0.9579   -0.5670    0.0000 C   0  0  0  0  0  0  0  0  0  0  0  0
    1.1444    0.7565    0.0000 C   0  0  0  0  0  0  0  0  0  0  0  0
   -1.3576   -1.0645    0.0000 C   0  0  0  0  0  0  0  0  0  0  0  0
   -1.2510    0.6203    0.0000 C   0  0  0  0  0  0  0  0  0  0  0  0
    2.8706    0.8424    0.0000 C   0  0  0  0  0  0  0  0  0  0  0  0
    2.4946   -0.0459    0.0000 C   0  0  0  0  0  0  0  0  0  0  0  0
   -1.0318    1.5293    0.0000 C   0  0  0  0  0  0  0  0  0  0  0  0
    1.4553   -1.3398    0.0000 C   0  0  0  0  0  0  0  0  0  0  0  0
   -2.1601    0.3449    0.0000 C   0  0  0  0  0  0  0  0  0  0  0  0
   -2.1601   -1.5116    0.0000 C   0  0  0  0  0  0  0  0  0  0  0  0
    2.9357   -0.8157    0.0000 C   0  0  0  0  0  0  0  0  0  0  0  0
    2.4797   -1.5885    0.0000 C   0  0  0  0  0  0  0  0  0  0  0  0
   -2.9357   -0.1259    0.0000 C   0  0  0  0  0  0  0  0  0  0  0  0
   -2.9357   -1.0408    0.0000 C   0  0  0  0  0  0  0  0  0  0  0  0
  2  1  1  0  0  0  0
  3  1  1  0  0  0  0
  4  2  1  0  0  0  0
  5  3  1  0  0  0  0
  6  9  1  0  0  0  0
  1  7  1  0  0  0  0
  8  2  1  0  0  0  0
  9  3  1  0  0  0  0
 10  7  2  0  0  0  0
 11  1  1  0  0  0  0
 12  5  1  0  0  0  0
 13  6  1  0  0  0  0
 14 11  1  0  0  0  0
  8 15  1  0  0  0  0
 16  7  1  0  0  0  0
 17 10  1  0  0  0  0
 13 18  1  0  0  0  0
 19 18  1  0  0  0  0
 20 16  2  0  0  0  0
 21 20  1  0  0  0  0
  5 14  1  0  0  0  0
  4 10  1  0  0  0  0
  6  8  1  0  0  0  0
 21 17  2  0  0  0  0
 13 12  1  0  0  0  0
M  END
>  <IDNUMBER> (N058-0062)
N058-0062

>  <available> (N058-0062)
78

>  <H_acceptor> (N058-0062)
1

>  <H_donor> (N058-0062)
1

>  <B_rotN> (N058-0062)
1

>  <N_O> (N058-0062)
2

>  <logP> (N058-0062)
3.11

>  <logD> (N058-0062)
3.56

>  <logSw> (N058-0062)
-4.38

>  <PSA> (N058-0062)
15.27

>  <Chiral_centers> (N058-0062)
6

>  <Name> (N058-0062)
12-ethyl-10-methyl-8,14-diazapentacyclo[9.5.2.0~1,9~.0~2,7~.0~14,17~]octadeca-2(7),3,5-triene

>  <Smile> (N058-0062)
c1cc2NC3C4(CCN5C4CC(C(C5)CC)C3C)c2cc1

>  <Collection> (N058-0062)
DC

>  <InChI Key> (N058-0062)
KNZUAMRYQXIWSR-UHFFFAOYSA-N

>  <PERCENTSP3> (N058-0062)
68.4

$$$$

  -ISIS-  -- StrEd -- 

 25 30  0  0  0  0  0  0  0  0999 V2000
    0.3824    0.1861    0.0000 C   0  0  0  0  0  0  0  0  0  0  0  0
    0.3824    1.1192    0.0000 C   0  0  0  0  0  0  0  0  0  0  0  0
    1.9577    1.1192    0.0000 C   0  0  0  0  0  0  0  0  0  0  0  0
    1.1778   -0.2626    0.0000 C   0  0  0  0  0  0  0  0  0  0  0  0
    1.1778    1.5728    0.0000 C   0  0  0  0  0  0  0  0  0  0  0  0
   -0.4435   -0.2626    0.0000 N   0  0  0  0  0  0  0  0  0  0  0  0
    0.8973    1.0427    0.0000 C   0  0  0  0  0  0  0  0  0  0  0  0
    1.9577    0.1861    0.0000 C   0  0  0  0  0  0  0  0  0  0  0  0
   -1.2387    1.1192    0.0000 C   0  0  0  0  0  0  0  0  0  0  0  0
    1.1472    2.5722    0.0000 N   0  0  0  0  0  0  0  0  0  0  0  0
   -1.2387    0.1861    0.0000 C   0  0  0  0  0  0  0  0  0  0  0  0
    1.1778   -1.6492    0.0000 C   0  0  0  0  0  0  0  0  0  0  0  0
   -0.4128    1.5932    0.0000 C   0  0  0  0  0  0  0  0  0  0  0  0
    2.8296    1.5881    0.0000 C   0  0  0  0  0  0  0  0  0  0  0  0
   -0.3670    2.6280    0.0000 C   0  0  0  0  0  0  0  0  0  0  0  0
    2.8296    2.5669    0.0000 C   0  0  0  0  0  0  0  0  0  0  0  0
    0.3213   -2.1437    0.0000 O   0  0  0  0  0  0  0  0  0  0  0  0
    1.9833    3.0614    0.0000 C   0  0  0  0  0  0  0  0  0  0  0  0
    2.1720   -2.0368    0.0000 O   0  0  0  0  0  0  0  0  0  0  0  0
    1.1420    0.5173    0.0000 C   0  0  0  0  0  0  0  0  0  0  0  0
   -2.0342    1.5728    0.0000 C   0  0  0  0  0  0  0  0  0  0  0  0
   -2.0342   -0.2626    0.0000 C   0  0  0  0  0  0  0  0  0  0  0  0
    2.2177   -3.0614    0.0000 C   0  0  0  0  0  0  0  0  0  0  0  0
   -2.8296    1.1192    0.0000 C   0  0  0  0  0  0  0  0  0  0  0  0
   -2.8296    0.1861    0.0000 C   0  0  0  0  0  0  0  0  0  0  0  0
  1  2  1  0  0  0  0
  3  7  1  0  0  0  0
  4  1  1  0  0  0  0
  5  2  1  0  0  0  0
  6  1  1  0  0  0  0
  7  1  1  0  0  0  0
  8  4  1  0  0  0  0
  2  9  1  0  0  0  0
 10  5  1  0  0  0  0
 11  6  1  0  0  0  0
  4 12  1  0  0  0  0
 13  2  1  0  0  0  0
 14  3  1  0  0  0  0
 15 13  1  0  0  0  0
 16 14  2  0  0  0  0
 17 12  2  0  0  0  0
 18 10  1  0  0  0  0
 19 12  1  0  0  0  0
  7 20  1  0  0  0  0
 21  9  1  0  0  0  0
 22 11  1  0  0  0  0
 23 19  1  0  0  0  0
 24 21  2  0  0  0  0
 25 22  2  0  0  0  0
 11  9  2  0  0  0  0
  8  3  1  0  0  0  0
  3  5  1  0  0  0  0
 10 15  1  0  0  0  0
 24 25  1  0  0  0  0
 16 18  1  0  0  0  0
M  END
>  <IDNUMBER> (6944-0095)
6944-0095

>  <available> (6944-0095)
57

>  <Saltdata> (6944-0095)
H2SO4

>  <H_acceptor> (6944-0095)
3

>  <H_donor> (6944-0095)
1

>  <B_rotN> (6944-0095)
2

>  <N_O> (6944-0095)
4

>  <logP> (6944-0095)
1.82

>  <logD> (6944-0095)
3.09

>  <logSw> (6944-0095)
-2.81

>  <PSA> (6944-0095)
41.57

>  <Chiral_centers> (6944-0095)
6

>  <Name> (6944-0095)
methyl 20-methyl-8,16-diazahexacyclo[10.6.1.1~9,12~.0~1,9~.0~2,7~.0~16,19~]icosa-2(7),3,5,13-tetraene-10-carboxylate

>  <Smile> (6944-0095)
c1cc2NC34C(C5(C=CCN6C5C3(c2cc1)CC6)CC4C(=O)OC)C

>  <Collection> (6944-0095)
DC

>  <InChI Key> (6944-0095)
JSLDLCGKZDUQSH-UHFFFAOYSA-N

>  <PERCENTSP3> (6944-0095)
57.1

$$$$

  -ISIS-  -- StrEd -- 

 22 24  0  0  0  0  0  0  0  0999 V2000
   -0.4172    3.5161    0.0000 N   0  3  0  0  0  0  0  0  0  0  0  0
    0.4413   -1.9823    0.0000 C   0  0  0  0  0  0  0  0  0  0  0  0
    0.4413   -0.9839    0.0000 C   0  0  0  0  0  0  0  0  0  0  0  0
   -0.4268   -2.4790    0.0000 C   0  0  0  0  0  0  0  0  0  0  0  0
   -0.4172   -0.4870    0.0000 N   0  0  0  0  0  0  0  0  0  0  0  0
   -0.4172    2.5225    0.0000 C   0  0  0  0  0  0  0  0  0  0  0  0
    0.4413    3.9935    0.0000 O   0  5  0  0  0  0  0  0  0  0  0  0
    1.2950   -2.4790    0.0000 C   0  0  0  0  0  0  0  0  0  0  0  0
   -1.2853    3.9935    0.0000 O   0  0  0  0  0  0  0  0  0  0  0  0
   -0.4268   -3.4967    0.0000 C   0  0  0  0  0  0  0  0  0  0  0  0
    1.2950   -3.4967    0.0000 C   0  0  0  0  0  0  0  0  0  0  0  0
    0.4413   -3.9935    0.0000 C   0  0  0  0  0  0  0  0  0  0  0  0
   -1.2853    2.0112    0.0000 C   0  0  0  0  0  0  0  0  0  0  0  0
    0.4413    2.0112    0.0000 C   0  0  0  0  0  0  0  0  0  0  0  0
   -0.4172    0.5064    0.0000 C   0  0  0  0  0  0  0  0  0  0  0  0
    0.4413    0.9936    0.0000 C   0  0  0  0  0  0  0  0  0  0  0  0
   -1.2853    1.0032    0.0000 C   0  0  0  0  0  0  0  0  0  0  0  0
    2.1631   -1.9823    0.0000 O   0  0  0  0  0  0  0  0  0  0  0  0
   -1.2950   -1.9823    0.0000 C   0  0  0  0  0  0  0  0  0  0  0  0
   -1.2950   -3.9935    0.0000 C   0  0  0  0  0  0  0  0  0  0  0  0
   -2.1631   -2.4790    0.0000 C   0  0  0  0  0  0  0  0  0  0  0  0
   -2.1631   -3.4967    0.0000 C   0  0  0  0  0  0  0  0  0  0  0  0
  2  3  1  0  0  0  0
  3  5  2  0  0  0  0
  4  2  1  0  0  0  0
  5 15  1  0  0  0  0
  6  1  1  0  0  0  0
  7  1  1  0  0  0  0
  8  2  2  0  0  0  0
  9  1  2  0  0  0  0
 10  4  2  0  0  0  0
 11  8  1  0  0  0  0
 12 11  2  0  0  0  0
 13  6  1  0  0  0  0
 14  6  2  0  0  0  0
 15 16  2  0  0  0  0
 16 14  1  0  0  0  0
 17 13  2  0  0  0  0
 18  8  1  0  0  0  0
 19  4  1  0  0  0  0
 20 10  1  0  0  0  0
 21 19  2  0  0  0  0
 22 21  1  0  0  0  0
 15 17  1  0  0  0  0
 12 10  1  0  0  0  0
 20 22  2  0  0  0  0
M  CHG  2   1   1   7  -1
M  END
>  <IDNUMBER> (N007-0023)
N007-0023

>  <available> (N007-0023)
63

>  <H_acceptor> (N007-0023)
4

>  <H_donor> (N007-0023)
1

>  <B_rotN> (N007-0023)
3

>  <N_O> (N007-0023)
5

>  <logP> (N007-0023)
3.96

>  <logD> (N007-0023)
4.07

>  <logSw> (N007-0023)
-6.25

>  <PSA> (N007-0023)
78.41

>  <Chiral_centers> (N007-0023)
0

>  <Name> (N007-0023)
1-[(E)-[(4-nitrophenyl)imino]methyl]naphthalen-2-ol

>  <Smile> (N007-0023)
c1cc2c(c(C=Nc3ccc([N+](=O)[O-])cc3)c(O)cc2)cc1

>  <Collection> (N007-0023)
DC

>  <InChI Key> (N007-0023)
OFXWURJGINWIEW-WOJGMQOQSA-N

>  <PERCENTSP3> (N007-0023)
0

$$$$

  -ISIS-  -- StrEd -- 

 20 22  0  0  0  0  0  0  0  0999 V2000
   -0.0304   -0.2376    0.0000 C   0  0  0  0  0  0  0  0  0  0  0  0
   -0.0304   -1.2382    0.0000 C   0  0  0  0  0  0  0  0  0  0  0  0
   -0.8997   -1.7385    0.0000 N   0  0  0  0  0  0  0  0  0  0  0  0
   -0.8997    0.2627    0.0000 C   0  0  0  0  0  0  0  0  0  0  0  0
    0.9198   -1.5515    0.0000 O   0  0  0  0  0  0  0  0  0  0  0  0
    0.9198    0.0657    0.0000 C   0  0  0  0  0  0  0  0  0  0  0  0
    1.5010   -0.7479    0.0000 C   0  0  0  0  0  0  0  0  0  0  0  0
   -1.7689   -0.2376    0.0000 C   0  0  0  0  0  0  0  0  0  0  0  0
   -1.7689   -1.2382    0.0000 C   0  0  0  0  0  0  0  0  0  0  0  0
    2.5018   -0.7530    0.0000 C   0  0  0  0  0  0  0  0  0  0  0  0
   -0.8945    1.2533    0.0000 O   0  0  0  0  0  0  0  0  0  0  0  0
    3.5023   -0.7530    0.0000 O   0  0  0  0  0  0  0  0  0  0  0  0
    2.5117    0.2476    0.0000 C   0  0  0  0  0  0  0  0  0  0  0  0
   -2.6279    0.2627    0.0000 C   0  0  0  0  0  0  0  0  0  0  0  0
    2.5018   -1.7536    0.0000 C   0  0  0  0  0  0  0  0  0  0  0  0
    3.3758    0.7479    0.0000 O   0  0  0  0  0  0  0  0  0  0  0  0
   -2.6279   -1.7385    0.0000 C   0  0  0  0  0  0  0  0  0  0  0  0
   -1.7689    1.7536    0.0000 C   0  0  0  0  0  0  0  0  0  0  0  0
   -3.5023   -0.2476    0.0000 C   0  0  0  0  0  0  0  0  0  0  0  0
   -3.5023   -1.2382    0.0000 C   0  0  0  0  0  0  0  0  0  0  0  0
  2  1  1  0  0  0  0
  3  2  2  0  0  0  0
  4  1  2  0  0  0  0
  5  2  1  0  0  0  0
  6  1  1  0  0  0  0
  7  6  1  0  0  0  0
  8  4  1  0  0  0  0
  9  8  1  0  0  0  0
  7 10  1  0  0  0  0
 11  4  1  0  0  0  0
 10 12  1  0  0  0  0
 13 10  1  0  0  0  0
 14  8  2  0  0  0  0
 15 10  1  0  0  0  0
 16 13  1  0  0  0  0
 17  9  2  0  0  0  0
 18 11  1  0  0  0  0
 19 14  1  0  0  0  0
 20 17  1  0  0  0  0
  5  7  1  0  0  0  0
  3  9  1  0  0  0  0
 19 20  2  0  0  0  0
M  END
>  <IDNUMBER> (N094-0016)
N094-0016

>  <available> (N094-0016)
710

>  <H_acceptor> (N094-0016)
5

>  <H_donor> (N094-0016)
2

>  <B_rotN> (N094-0016)
5

>  <N_O> (N094-0016)
5

>  <logP> (N094-0016)
1.78

>  <logD> (N094-0016)
1.43

>  <logSw> (N094-0016)
-2.09

>  <PSA> (N094-0016)
71.81

>  <Chiral_centers> (N094-0016)
2

>  <Name> (N094-0016)
2-{4-methoxy-2H,3H-furo[2,3-b]quinolin-2-yl}propane-1,2-diol

>  <Smile> (N094-0016)
c1cc2[nH0]c3c(CC(O3)C(CO)(O)C)c(c2cc1)OC

>  <Collection> (N094-0016)
NC

>  <InChI Key> (N094-0016)
NETGEQWGGLFVRL-UHFFFAOYSA-N

>  <PERCENTSP3> (N094-0016)
40

$$$$

  -ISIS-  -- StrEd -- 

 32 36  0  0  0  0  0  0  0  0999 V2000
   -1.0259   -1.4284    0.0000 C   0  0  0  0  0  0  0  0  0  0  0  0
    1.4731   -0.9456    0.0000 C   0  0  0  0  0  0  0  0  0  0  0  0
   -1.0259   -2.3807    0.0000 C   0  0  0  0  0  0  0  0  0  0  0  0
    1.4731   -0.0022    0.0000 C   0  0  0  0  0  0  0  0  0  0  0  0
   -0.1677   -0.9456    0.0000 C   0  0  2  0  0  0  0  0  0  0  0  0
    0.5834   -1.4284    0.0000 C   0  0  1  0  0  0  0  0  0  0  0  0
    2.6980    1.2451    0.0000 C   0  0  0  0  0  0  0  0  0  0  0  0
    2.3851    0.2659    0.0000 C   0  0  0  0  0  0  0  0  0  0  0  0
   -1.0350    0.2659    0.0000 C   0  0  0  0  0  0  0  0  0  0  0  0
    2.0990    1.9202    0.0000 C   0  0  0  0  0  0  0  0  0  0  0  0
    2.6354    2.7562    0.0000 C   0  0  0  0  0  0  0  0  0  0  0  0
    0.5834    0.4806    0.0000 C   0  0  0  0  0  0  0  0  0  0  0  0
    2.3851   -1.2450    0.0000 C   0  0  0  0  0  0  0  0  0  0  0  0
   -1.8844   -0.9456    0.0000 C   0  0  0  0  0  0  0  0  0  0  0  0
   -0.1677   -0.0022    0.0000 C   0  0  0  0  0  0  0  0  0  0  0  0
   -1.8844   -2.8635    0.0000 C   0  0  0  0  0  0  0  0  0  0  0  0
    3.5564    2.4567    0.0000 O   0  0  0  0  0  0  0  0  0  0  0  0
    2.9440   -0.4716    0.0000 C   0  0  0  0  0  0  0  0  0  0  0  0
    0.5834   -2.3807    0.0000 C   0  0  0  0  0  0  0  0  0  0  0  0
   -0.1677   -2.8635    0.0000 C   0  0  0  0  0  0  0  0  0  0  0  0
    3.5788    1.5223    0.0000 C   0  0  0  0  0  0  0  0  0  0  0  0
   -0.1454    0.8159    0.0000 O   0  0  0  0  0  0  0  0  0  0  0  0
    2.2779    3.6682    0.0000 O   0  0  0  0  0  0  0  0  0  0  0  0
    1.4731   -2.1481    0.0000 O   0  0  0  0  0  0  0  0  0  0  0  0
   -1.0259   -3.6682    0.0000 O   0  0  0  0  0  0  0  0  0  0  0  0
   -2.6578   -2.3807    0.0000 C   0  0  0  0  0  0  0  0  0  0  0  0
   -1.8710    0.8159    0.0000 O   0  0  0  0  0  0  0  0  0  0  0  0
    1.4731    1.2451    0.0000 C   0  0  0  0  0  0  0  0  0  0  0  0
   -2.6578   -1.4284    0.0000 C   0  0  0  0  0  0  0  0  0  0  0  0
   -3.5788   -2.8232    0.0000 O   0  0  0  0  0  0  0  0  0  0  0  0
    0.5834   -0.5699    0.0000 H   0  0  0  0  0  0  0  0  0  0  0  0
   -0.1677   -1.8576    0.0000 H   0  0  0  0  0  0  0  0  0  0  0  0
  2  6  1  0  0  0  0
  3  1  1  0  0  0  0
  4 12  1  0  0  0  0
  5  1  1  0  0  0  0
  6  5  1  0  0  0  0
  8  7  1  0  0  0  0
  8  4  1  0  0  0  0
  1  9  1  0  0  0  0
 10  7  2  0  0  0  0
 11 10  1  0  0  0  0
 12 15  1  0  0  0  0
 13  2  1  0  0  0  0
 14  1  1  0  0  0  0
 15  5  1  0  0  0  0
 16  3  1  0  0  0  0
 17 21  1  0  0  0  0
 18 13  1  0  0  0  0
 19  6  1  0  0  0  0
 20  3  1  0  0  0  0
 21  7  1  0  0  0  0
 22  9  2  0  0  0  0
 23 11  2  0  0  0  0
  2 24  1  0  0  0  0
  3 25  1  0  0  0  0
 26 29  1  0  0  0  0
 27  9  1  0  0  0  0
  4 28  1  0  0  0  0
 29 14  1  0  0  0  0
 26 30  1  0  0  0  0
  6 31  1  1  0  0  0
  5 32  1  6  0  0  0
 20 19  1  0  0  0  0
 16 26  1  0  0  0  0
  2  4  1  0  0  0  0
 18  8  1  0  0  0  0
 11 17  1  0  0  0  0
M  END
>  <IDNUMBER> (0449-0101)
0449-0101

>  <available> (0449-0101)
1291

>  <H_acceptor> (0449-0101)
7

>  <H_donor> (0449-0101)
4

>  <B_rotN> (0449-0101)
6

>  <N_O> (0449-0101)
7

>  <logP> (0449-0101)
1.18

>  <logD> (0449-0101)
-1.97

>  <logSw> (0449-0101)
1.46

>  <PSA> (0449-0101)
124.29

>  <Chiral_centers> (0449-0101)
8

>  <Name> (0449-0101)
3a,5a,7-trihydroxy-11a-methyl-1-(5-oxo-2,5-dihydrofuran-3-yl)-hexadecahydro-1H-cyclopenta[a]phenanthrene-9a-carboxylic acid

>  <Smile> (0449-0101)
OC1CC2(C(CC1)(C(=O)O)C1C(C3(CCC(C3(CC1)C)C1=CC(OC1)=O)O)CC2)O

>  <Collection> (0449-0101)
DC

>  <InChI Key> (0449-0101)
XJIILRFVONGQOG-WQRAWKIHSA-N

>  <PERCENTSP3> (0449-0101)
82.6

$$$$

  -ISIS-  -- StrEd -- 

 45 49  0  0  0  0  0  0  0  0999 V2000
   -0.2472   -0.0406    0.0000 C   0  0  0  0  0  0  0  0  0  0  0  0
    2.3198    0.4605    0.0000 C   0  0  0  0  0  0  0  0  0  0  0  0
    2.3198    1.4358    0.0000 C   0  0  0  0  0  0  0  0  0  0  0  0
   -0.2472   -1.0160    0.0000 C   0  0  0  0  0  0  0  0  0  0  0  0
    0.6129    0.4605    0.0000 C   0  0  2  0  0  0  0  0  0  0  0  0
    1.4597   -0.0406    0.0000 C   0  0  1  0  0  0  0  0  0  0  0  0
    3.5727    2.7092    0.0000 C   0  0  0  0  0  0  0  0  0  0  0  0
    3.1937    1.7000    0.0000 C   0  0  0  0  0  0  0  0  0  0  0  0
    2.9226    3.5357    0.0000 C   0  0  0  0  0  0  0  0  0  0  0  0
    3.5727    4.4636    0.0000 C   0  0  0  0  0  0  0  0  0  0  0  0
    3.1937    0.1692    0.0000 C   0  0  0  0  0  0  0  0  0  0  0  0
    1.4597    1.9234    0.0000 C   0  0  0  0  0  0  0  0  0  0  0  0
   -0.2472    0.9483    0.0000 C   0  0  0  0  0  0  0  0  0  0  0  0
   -1.1279   -1.4900    0.0000 C   0  0  0  0  0  0  0  0  0  0  0  0
   -1.1279    0.4605    0.0000 C   0  0  0  0  0  0  0  0  0  0  0  0
    0.6129    1.4358    0.0000 C   0  0  0  0  0  0  0  0  0  0  0  0
    4.5753    4.0908    0.0000 O   0  0  0  0  0  0  0  0  0  0  0  0
    3.7827    0.9483    0.0000 C   0  0  0  0  0  0  0  0  0  0  0  0
    1.4597   -1.0160    0.0000 C   0  0  0  0  0  0  0  0  0  0  0  0
    0.6129   -1.4900    0.0000 C   0  0  0  0  0  0  0  0  0  0  0  0
   -2.8007   -2.5129    0.0000 C   0  0  0  0  0  0  0  0  0  0  0  0
    4.5753    3.0478    0.0000 C   0  0  0  0  0  0  0  0  0  0  0  0
   -1.0938    2.4654    0.0000 C   0  0  0  0  0  0  0  0  0  0  0  0
   -1.0938   -4.4975    0.0000 C   0  0  0  0  0  0  0  0  0  0  0  0
   -3.7150    2.9802    0.0000 C   0  0  0  0  0  0  0  0  0  0  0  0
   -1.1140    1.4696    0.0000 O   0  0  0  0  0  0  0  0  0  0  0  0
   -1.9269   -1.0160    0.0000 C   0  0  0  0  0  0  0  0  0  0  0  0
   -2.8007   -1.5377    0.0000 O   0  0  0  0  0  0  0  0  0  0  0  0
    3.1937    5.4862    0.0000 O   0  0  0  0  0  0  0  0  0  0  0  0
    2.3198   -0.6234    0.0000 O   0  0  0  0  0  0  0  0  0  0  0  0
   -3.6475   -3.0006    0.0000 O   0  0  0  0  0  0  0  0  0  0  0  0
   -0.2201    2.9667    0.0000 O   0  0  0  0  0  0  0  0  0  0  0  0
   -3.7150    3.9893    0.0000 O   0  0  0  0  0  0  0  0  0  0  0  0
   -1.0938   -5.4862    0.0000 O   0  0  0  0  0  0  0  0  0  0  0  0
   -0.2472   -2.2691    0.0000 O   0  0  0  0  0  0  0  0  0  0  0  0
   -1.9269   -0.0406    0.0000 C   0  0  0  0  0  0  0  0  0  0  0  0
    2.3198    2.4316    0.0000 C   0  0  0  0  0  0  0  0  0  0  0  0
   -1.9406   -3.0142    0.0000 C   0  0  0  0  0  0  0  0  0  0  0  0
   -1.9406    2.9667    0.0000 C   0  0  0  0  0  0  0  0  0  0  0  0
   -1.9406   -4.0097    0.0000 C   0  0  0  0  0  0  0  0  0  0  0  0
   -2.8480    2.4925    0.0000 C   0  0  0  0  0  0  0  0  0  0  0  0
   -0.2339   -4.0097    0.0000 O   0  0  0  0  0  0  0  0  0  0  0  0
   -4.5753    2.4925    0.0000 O   0  0  0  0  0  0  0  0  0  0  0  0
    0.6129   -0.4811    0.0000 H   0  0  0  0  0  0  0  0  0  0  0  0
    1.4597    0.8193    0.0000 H   0  0  0  0  0  0  0  0  0  0  0  0
  2  6  1  0  0  0  0
  3 12  1  0  0  0  0
  4  1  1  0  0  0  0
  5  1  1  0  0  0  0
  6  5  1  0  0  0  0
  8  7  1  0  0  0  0
  8  3  1  0  0  0  0
  9  7  2  0  0  0  0
 10  9  1  0  0  0  0
 11  2  1  0  0  0  0
 12 16  1  0  0  0  0
  1 13  1  0  0  0  0
 14  4  1  0  0  0  0
 15  1  1  0  0  0  0
 16  5  1  0  0  0  0
 17 22  1  0  0  0  0
 18 11  1  0  0  0  0
 19  6  1  0  0  0  0
 20  4  1  0  0  0  0
 21 28  1  0  0  0  0
 22  7  1  0  0  0  0
 23 26  1  0  0  0  0
 24 40  1  0  0  0  0
 25 41  1  0  0  0  0
 26 13  1  0  0  0  0
 27 36  1  0  0  0  0
 27 28  1  0  0  0  0
 29 10  2  0  0  0  0
  2 30  1  0  0  0  0
 31 21  2  0  0  0  0
 32 23  2  0  0  0  0
 33 25  2  0  0  0  0
 34 24  2  0  0  0  0
  4 35  1  0  0  0  0
 36 15  1  0  0  0  0
  3 37  1  0  0  0  0
 38 21  1  0  0  0  0
 39 23  1  0  0  0  0
 40 38  1  0  0  0  0
 41 39  1  0  0  0  0
 42 24  1  0  0  0  0
 43 25  1  0  0  0  0
  5 44  1  6  0  0  0
  6 45  1  1  0  0  0
 19 20  1  0  0  0  0
 27 14  1  0  0  0  0
  2  3  1  0  0  0  0
  8 18  1  0  0  0  0
 17 10  1  0  0  0  0
M  END
>  <IDNUMBER> (0449-0119)
0449-0119

>  <available> (0449-0119)
108

>  <H_acceptor> (0449-0119)
12

>  <H_donor> (0449-0119)
4

>  <B_rotN> (0449-0119)
16

>  <N_O> (0449-0119)
12

>  <logP> (0449-0119)
1.37

>  <logD> (0449-0119)
-1.07

>  <logSw> (0449-0119)
-2.39

>  <PSA> (0449-0119)
193.96

>  <Chiral_centers> (0449-0119)
8

>  <Name> (0449-0119)
4-[(9a-{[(3-carboxypropanoyl)oxy]methyl}-3a,5a-dihydroxy-11a-methyl-1-(5-oxo-2,5-dihydrofuran-3-yl)-hexadecahydro-1H-cyclopenta[a]phenanthren-7-yl)oxy]-4-oxobutanoic acid

>  <Smile> (0449-0119)
OC(CCC(OCC12CCC(CC1(O)CCC1C3(CCC(C3(CCC12)C)C1=CC(=O)OC1)O)OC(=O)CCC(=O)O)=O)=O

>  <Collection> (0449-0119)
DC

>  <InChI Key> (0449-0119)
PORLQGCIBQPFNX-GIBQXGHVSA-N

>  <PERCENTSP3> (0449-0119)
77.4

$$$$

  -ISIS-  -- StrEd -- 

 42 47  0  0  0  0  0  0  0  0999 V2000
    2.7992    1.1381    0.0000 C   0  0  0  0  0  0  0  0  0  0  0  0
    2.7992    0.2407    0.0000 C   0  0  0  0  0  0  0  0  0  0  0  0
    0.3863   -0.2287    0.0000 C   0  0  0  0  0  0  0  0  0  0  0  0
    1.9553   -0.2287    0.0000 C   0  0  1  0  0  0  0  0  0  0  0  0
   -1.9790   -2.8793    0.0000 C   0  0  0  0  0  0  0  0  0  0  0  0
    1.2005    0.2407    0.0000 C   0  0  2  0  0  0  0  0  0  0  0  0
    0.3863   -1.1439    0.0000 C   0  0  0  0  0  0  0  0  0  0  0  0
   -2.7931   -3.8657    0.0000 C   0  0  0  0  0  0  0  0  0  0  0  0
   -4.2907   -3.8657    0.0000 C   0  0  0  0  0  0  0  0  0  0  0  0
    3.6371    1.4115    0.0000 C   0  0  0  0  0  0  0  0  0  0  0  0
   -2.7931   -1.8392    0.0000 O   0  0  0  0  0  0  0  0  0  0  0  0
    4.0115    2.2552    0.0000 C   0  0  0  0  0  0  0  0  0  0  0  0
    1.9553    1.6254    0.0000 C   0  0  0  0  0  0  0  0  0  0  0  0
   -5.0337   -2.8793    0.0000 C   0  0  0  0  0  0  0  0  0  0  0  0
    1.2005    1.1381    0.0000 C   0  0  1  0  0  0  0  0  0  0  0  0
    3.6252    3.1111    0.0000 C   0  0  0  0  0  0  0  0  0  0  0  0
   -4.2907   -1.8392    0.0000 C   0  0  0  0  0  0  0  0  0  0  0  0
    4.2671    3.7528    0.0000 C   0  0  0  0  0  0  0  0  0  0  0  0
    3.6371   -0.0447    0.0000 C   0  0  0  0  0  0  0  0  0  0  0  0
   -0.4280   -1.5719    0.0000 C   0  0  0  0  0  0  0  0  0  0  0  0
   -0.4280    0.2407    0.0000 C   0  0  0  0  0  0  0  0  0  0  0  0
    1.9553   -1.1439    0.0000 C   0  0  0  0  0  0  0  0  0  0  0  0
   -1.9790   -1.6254    0.0000 O   0  0  0  0  0  0  0  0  0  0  0  0
    5.0337    3.3370    0.0000 O   0  0  0  0  0  0  0  0  0  0  0  0
    4.1363    0.6865    0.0000 C   0  0  0  0  0  0  0  0  0  0  0  0
    1.2005   -1.5719    0.0000 C   0  0  0  0  0  0  0  0  0  0  0  0
    4.9089    2.4217    0.0000 C   0  0  0  0  0  0  0  0  0  0  0  0
   -1.1944   -1.1439    0.0000 C   0  0  0  0  0  0  0  0  0  0  0  0
    3.9223    4.8762    0.0000 O   0  0  0  0  0  0  0  0  0  0  0  0
    2.8110   -0.7280    0.0000 O   0  0  0  0  0  0  0  0  0  0  0  0
   -2.7931   -4.8762    0.0000 O   0  0  0  0  0  0  0  0  0  0  0  0
    0.3863   -2.3682    0.0000 O   0  0  0  0  0  0  0  0  0  0  0  0
   -4.3084   -4.8523    0.0000 O   0  0  0  0  0  0  0  0  0  0  0  0
    0.3863    0.6865    0.0000 C   0  0  0  0  0  0  0  0  0  0  0  0
   -5.0337   -1.8392    0.0000 O   0  0  0  0  0  0  0  0  0  0  0  0
    2.8110    2.0116    0.0000 C   0  0  0  0  0  0  0  0  0  0  0  0
    0.2853    1.6254    0.0000 O   0  0  0  0  0  0  0  0  0  0  0  0
   -1.1944   -0.2287    0.0000 C   0  0  0  0  0  0  0  0  0  0  0  0
   -0.4280    1.1381    0.0000 O   0  0  0  0  0  0  0  0  0  0  0  0
   -4.2492   -2.6833    0.0000 C   0  0  0  0  0  0  0  0  0  0  0  0
    1.2005   -0.7695    0.0000 H   0  0  0  0  0  0  0  0  0  0  0  0
    1.9433    0.8290    0.0000 H   0  0  0  0  0  0  0  0  0  0  0  0
  2  1  1  0  0  0  0
  3  6  1  0  0  0  0
  4  2  1  0  0  0  0
  5 23  1  0  0  0  0
  6 15  1  0  0  0  0
  7  3  1  0  0  0  0
  8  5  1  0  0  0  0
  9  8  1  0  0  0  0
 10  1  1  0  0  0  0
 11  5  1  0  0  0  0
 10 12  1  0  0  0  0
 13  1  1  0  0  0  0
 14 17  1  0  0  0  0
 15 13  1  0  0  0  0
 16 12  2  0  0  0  0
 17 11  1  0  0  0  0
 18 16  1  0  0  0  0
 19  2  1  0  0  0  0
 20  7  1  0  0  0  0
 21  3  1  0  0  0  0
 22  4  1  0  0  0  0
 28 23  1  0  0  0  0
 24 27  1  0  0  0  0
 25 10  1  0  0  0  0
 26 22  1  0  0  0  0
 27 12  1  0  0  0  0
 28 38  1  0  0  0  0
 29 18  2  0  0  0  0
  2 30  1  0  0  0  0
  8 31  1  0  0  0  0
  7 32  1  0  0  0  0
  9 33  1  0  0  0  0
  3 34  1  0  0  0  0
 14 35  1  0  0  0  0
  1 36  1  0  0  0  0
 15 37  1  6  0  0  0
 38 21  1  0  0  0  0
 39 34  1  0  0  0  0
 17 40  1  0  0  0  0
  6 41  1  6  0  0  0
  4 42  1  1  0  0  0
 19 25  1  0  0  0  0
  4  6  1  0  0  0  0
 18 24  1  0  0  0  0
 26  7  1  0  0  0  0
 28 20  1  0  0  0  0
 14  9  1  0  0  0  0
M  END
>  <IDNUMBER> (0449-0125)
0449-0125

>  <available> (0449-0125)
463

>  <H_acceptor> (0449-0125)
11

>  <H_donor> (0449-0125)
7

>  <B_rotN> (0449-0125)
11

>  <N_O> (0449-0125)
11

>  <logP> (0449-0125)
-1.05

>  <logD> (0449-0125)
-1.93

>  <logSw> (0449-0125)
-3.85

>  <PSA> (0449-0125)
186.37

>  <Chiral_centers> (0449-0125)
14

>  <Name> (0449-0125)
4-[3a,5a,10-trihydroxy-9a-(hydroxymethyl)-11a-methyl-7-[(3,4,5-trihydroxy-6-methyloxan-2-yl)oxy]-hexadecahydro-1H-cyclopenta[a]phenanthren-1-yl]-2,5-dihydrofuran-2-one

>  <Smile> (0449-0125)
CC1OC(OC2CC3(C(C4C(C5(C(C)(CC4O)C(C4=CC(OC4)=O)CC5)O)CC3)(CO)CC2)O)C(C(O)C1O)O

>  <Collection> (0449-0125)
DC

>  <InChI Key> (0449-0125)
BUGNRCRUPAIYMD-UKMPCWKWSA-N

>  <PERCENTSP3> (0449-0125)
89.7

$$$$

  -ISIS-  -- StrEd -- 

 41 46  0  0  0  0  0  0  0  0999 V2000
    2.7895    0.5150    0.0000 C   0  0  0  0  0  0  0  0  0  0  0  0
    0.3904    0.0351    0.0000 C   0  0  0  0  0  0  0  0  0  0  0  0
    2.7895    1.4044    0.0000 C   0  0  0  0  0  0  0  0  0  0  0  0
    0.3904   -0.8542    0.0000 C   0  0  0  0  0  0  0  0  0  0  0  0
    1.2028    0.5150    0.0000 C   0  0  2  0  0  0  0  0  0  0  0  0
    1.9577    0.0351    0.0000 C   0  0  1  0  0  0  0  0  0  0  0  0
    3.9986    2.5238    0.0000 C   0  0  0  0  0  0  0  0  0  0  0  0
    3.6339    1.6794    0.0000 C   0  0  0  0  0  0  0  0  0  0  0  0
   -1.9897   -2.6006    0.0000 C   0  0  0  0  0  0  0  0  0  0  0  0
   -2.7895   -1.5579    0.0000 O   0  0  0  0  0  0  0  0  0  0  0  0
   -2.7895   -3.5858    0.0000 C   0  0  0  0  0  0  0  0  0  0  0  0
    3.6146    3.3876    0.0000 C   0  0  0  0  0  0  0  0  0  0  0  0
   -5.0286   -2.6006    0.0000 C   0  0  0  0  0  0  0  0  0  0  0  0
    4.2609    4.0146    0.0000 C   0  0  0  0  0  0  0  0  0  0  0  0
   -4.2737   -3.5858    0.0000 C   0  0  0  0  0  0  0  0  0  0  0  0
   -4.2737   -1.5579    0.0000 C   0  0  0  0  0  0  0  0  0  0  0  0
    3.6339    0.2206    0.0000 C   0  0  0  0  0  0  0  0  0  0  0  0
    1.9577    1.8969    0.0000 C   0  0  0  0  0  0  0  0  0  0  0  0
   -0.4350   -1.2827    0.0000 C   0  0  0  0  0  0  0  0  0  0  0  0
   -0.4350    0.5150    0.0000 C   0  0  0  0  0  0  0  0  0  0  0  0
    1.2028    1.4044    0.0000 C   0  0  0  0  0  0  0  0  0  0  0  0
    5.0286    3.5986    0.0000 O   0  0  0  0  0  0  0  0  0  0  0  0
    4.1204    0.9566    0.0000 C   0  0  0  0  0  0  0  0  0  0  0  0
    1.9577   -0.8542    0.0000 C   0  0  0  0  0  0  0  0  0  0  0  0
    1.2028   -1.2827    0.0000 C   0  0  0  0  0  0  0  0  0  0  0  0
    4.8881    2.6967    0.0000 C   0  0  0  0  0  0  0  0  0  0  0  0
   -1.9897   -1.3468    0.0000 O   0  0  0  0  0  0  0  0  0  0  0  0
   -1.2028   -0.8542    0.0000 C   0  0  0  0  0  0  0  0  0  0  0  0
    3.9090    5.1342    0.0000 O   0  0  0  0  0  0  0  0  0  0  0  0
    2.7702   -0.4255    0.0000 O   0  0  0  0  0  0  0  0  0  0  0  0
    0.3904   -2.0826    0.0000 O   0  0  0  0  0  0  0  0  0  0  0  0
    0.3904    0.9566    0.0000 C   0  0  0  0  0  0  0  0  0  0  0  0
   -1.2028    0.0351    0.0000 C   0  0  0  0  0  0  0  0  0  0  0  0
   -5.0158   -3.6498    0.0000 O   0  0  0  0  0  0  0  0  0  0  0  0
    2.7702    2.4344    0.0000 C   0  0  0  0  0  0  0  0  0  0  0  0
   -4.2737   -4.4624    0.0000 O   0  0  0  0  0  0  0  0  0  0  0  0
   -0.4350    1.4044    0.0000 O   0  0  0  0  0  0  0  0  0  0  0  0
   -4.2737   -0.6814    0.0000 C   0  0  0  0  0  0  0  0  0  0  0  0
   -3.4292   -5.1342    0.0000 C   0  0  0  0  0  0  0  0  0  0  0  0
    1.9449    1.0973    0.0000 H   0  0  0  0  0  0  0  0  0  0  0  0
    1.2028   -0.4831    0.0000 H   0  0  0  0  0  0  0  0  0  0  0  0
  2  5  1  0  0  0  0
  3  1  1  0  0  0  0
  4 25  1  0  0  0  0
  5  6  1  0  0  0  0
  6  1  1  0  0  0  0
  8  7  1  0  0  0  0
  8  3  1  0  0  0  0
  9 27  1  0  0  0  0
 10  9  1  0  0  0  0
 11  9  1  0  0  0  0
 12  7  2  0  0  0  0
 13 15  1  0  0  0  0
 14 12  1  0  0  0  0
 15 11  1  0  0  0  0
 16 10  1  0  0  0  0
 17  1  1  0  0  0  0
 18  3  1  0  0  0  0
 19  4  1  0  0  0  0
 20  2  1  0  0  0  0
 21  5  1  0  0  0  0
 22 26  1  0  0  0  0
 23 17  1  0  0  0  0
 24  6  1  0  0  0  0
 25 24  1  0  0  0  0
 26  7  1  0  0  0  0
 28 27  1  0  0  0  0
 28 19  1  0  0  0  0
 29 14  2  0  0  0  0
  1 30  1  0  0  0  0
  4 31  1  0  0  0  0
  2 32  1  0  0  0  0
 33 20  1  0  0  0  0
 13 34  1  0  0  0  0
  3 35  1  0  0  0  0
 15 36  1  0  0  0  0
 37 32  1  0  0  0  0
 16 38  1  0  0  0  0
 39 36  1  0  0  0  0
  6 40  1  1  0  0  0
  5 41  1  6  0  0  0
  8 23  1  0  0  0  0
 18 21  1  0  0  0  0
  4  2  1  0  0  0  0
 28 33  1  0  0  0  0
 22 14  1  0  0  0  0
 13 16  1  0  0  0  0
M  END
>  <IDNUMBER> (0449-0126)
0449-0126

>  <available> (0449-0126)
113

>  <H_acceptor> (0449-0126)
9

>  <H_donor> (0449-0126)
4

>  <B_rotN> (0449-0126)
9

>  <N_O> (0449-0126)
9

>  <logP> (0449-0126)
1.29

>  <logD> (0449-0126)
0.56

>  <logSw> (0449-0126)
-4.41

>  <PSA> (0449-0126)
134.91

>  <Chiral_centers> (0449-0126)
12

>  <Name> (0449-0126)
4-{3a,5a-dihydroxy-7-[(5-hydroxy-4-methoxy-6-methyloxan-2-yl)oxy]-9a-(hydroxymethyl)-11a-methyl-hexadecahydro-1H-cyclopenta[a]phenanthren-1-yl}-2,5-dihydrofuran-2-one

>  <Smile> (0449-0126)
COC1CC(OC2CC3(C(C4C(C5(O)CCC(C5(C)CC4)C4=CC(=O)OC4)CC3)(CO)CC2)O)OC(C1O)C

>  <Collection> (0449-0126)
DC

>  <InChI Key> (0449-0126)
WPKQVDYSPWCVGM-VTUZSQCESA-N

>  <PERCENTSP3> (0449-0126)
90

$$$$

  -ISIS-  -- StrEd -- 

 40 45  0  0  0  0  0  0  0  0999 V2000
    2.6451   -0.0239    0.0000 C   0  0  0  0  0  0  0  0  0  0  0  0
    0.3403   -0.5134    0.0000 C   0  0  0  0  0  0  0  0  0  0  0  0
    2.6451    0.8479    0.0000 C   0  0  0  0  0  0  0  0  0  0  0  0
    0.3403   -1.3732    0.0000 C   0  0  0  0  0  0  0  0  0  0  0  0
    1.1285   -0.0239    0.0000 C   0  0  2  0  0  0  0  0  0  0  0  0
    1.8867   -0.5134    0.0000 C   0  0  1  0  0  0  0  0  0  0  0  0
    3.8631    2.0959    0.0000 C   0  0  0  0  0  0  0  0  0  0  0  0
    3.4930    1.1046    0.0000 C   0  0  0  0  0  0  0  0  0  0  0  0
   -1.9525   -3.0631    0.0000 C   0  0  0  0  0  0  0  0  0  0  0  0
   -2.7108   -2.0778    0.0000 O   0  0  0  0  0  0  0  0  0  0  0  0
   -2.7108   -4.0123    0.0000 C   0  0  0  0  0  0  0  0  0  0  0  0
    3.2480    2.9257    0.0000 C   0  0  0  0  0  0  0  0  0  0  0  0
   -4.9080   -3.0631    0.0000 C   0  0  0  0  0  0  0  0  0  0  0  0
   -4.1439   -4.0123    0.0000 C   0  0  0  0  0  0  0  0  0  0  0  0
    3.8930    3.8154    0.0000 C   0  0  0  0  0  0  0  0  0  0  0  0
   -4.1439   -2.0778    0.0000 C   0  0  0  0  0  0  0  0  0  0  0  0
    3.4930   -0.3104    0.0000 C   0  0  0  0  0  0  0  0  0  0  0  0
    1.8867    1.2896    0.0000 C   0  0  0  0  0  0  0  0  0  0  0  0
   -0.4657   -1.8151    0.0000 C   0  0  0  0  0  0  0  0  0  0  0  0
   -0.4657   -0.0239    0.0000 C   0  0  0  0  0  0  0  0  0  0  0  0
    1.1285    0.8479    0.0000 C   0  0  0  0  0  0  0  0  0  0  0  0
    4.9080    3.4393    0.0000 O   0  0  0  0  0  0  0  0  0  0  0  0
    3.9766    0.4058    0.0000 C   0  0  0  0  0  0  0  0  0  0  0  0
    1.8867   -1.3732    0.0000 C   0  0  0  0  0  0  0  0  0  0  0  0
    1.1285   -1.8151    0.0000 C   0  0  0  0  0  0  0  0  0  0  0  0
    4.8959    2.3942    0.0000 C   0  0  0  0  0  0  0  0  0  0  0  0
   -1.9525   -1.8450    0.0000 O   0  0  0  0  0  0  0  0  0  0  0  0
   -1.1821   -1.3732    0.0000 C   0  0  0  0  0  0  0  0  0  0  0  0
    3.5944    4.8721    0.0000 O   0  0  0  0  0  0  0  0  0  0  0  0
    2.6332   -1.1284    0.0000 O   0  0  0  0  0  0  0  0  0  0  0  0
    0.3403   -2.5496    0.0000 O   0  0  0  0  0  0  0  0  0  0  0  0
    0.3226    0.5732    0.0000 C   0  0  0  0  0  0  0  0  0  0  0  0
   -1.1821   -0.5134    0.0000 C   0  0  0  0  0  0  0  0  0  0  0  0
   -4.9080   -4.1677    0.0000 O   0  0  0  0  0  0  0  0  0  0  0  0
    2.6332    1.8809    0.0000 C   0  0  0  0  0  0  0  0  0  0  0  0
   -4.1439   -4.8721    0.0000 O   0  0  0  0  0  0  0  0  0  0  0  0
   -0.6091    1.0927    0.0000 O   0  0  0  0  0  0  0  0  0  0  0  0
   -4.1439   -1.2301    0.0000 C   0  0  0  0  0  0  0  0  0  0  0  0
    1.1285   -0.8838    0.0000 H   0  0  0  0  0  0  0  0  0  0  0  0
    1.8867    0.2867    0.0000 H   0  0  0  0  0  0  0  0  0  0  0  0
  2  5  1  0  0  0  0
  3  1  1  0  0  0  0
  4 25  1  0  0  0  0
  5  6  1  0  0  0  0
  6  1  1  0  0  0  0
  8  7  1  0  0  0  0
  8  3  1  0  0  0  0
  9 27  1  0  0  0  0
 10  9  1  0  0  0  0
 11  9  1  0  0  0  0
 12  7  2  0  0  0  0
 13 14  1  0  0  0  0
 14 11  1  0  0  0  0
 15 12  1  0  0  0  0
 16 10  1  0  0  0  0
 17  1  1  0  0  0  0
 18  3  1  0  0  0  0
 19  4  1  0  0  0  0
 20  2  1  0  0  0  0
 21  5  1  0  0  0  0
 22 26  1  0  0  0  0
 23 17  1  0  0  0  0
 24  6  1  0  0  0  0
 25 24  1  0  0  0  0
 26  7  1  0  0  0  0
 28 27  1  0  0  0  0
 28 19  1  0  0  0  0
 29 15  2  0  0  0  0
  1 30  1  0  0  0  0
  4 31  1  0  0  0  0
  2 32  1  0  0  0  0
 33 20  1  0  0  0  0
 13 34  1  0  0  0  0
  3 35  1  0  0  0  0
 14 36  1  0  0  0  0
 37 32  1  0  0  0  0
 16 38  1  0  0  0  0
  5 39  1  6  0  0  0
  6 40  1  1  0  0  0
  8 23  1  0  0  0  0
 21 18  1  0  0  0  0
  4  2  1  0  0  0  0
 28 33  1  0  0  0  0
 22 15  1  0  0  0  0
 13 16  1  0  0  0  0
M  END
>  <IDNUMBER> (0449-0133)
0449-0133

>  <available> (0449-0133)
889

>  <H_acceptor> (0449-0133)
9

>  <H_donor> (0449-0133)
5

>  <B_rotN> (0449-0133)
9

>  <N_O> (0449-0133)
9

>  <logP> (0449-0133)
0.88

>  <logD> (0449-0133)
0.15

>  <logSw> (0449-0133)
-3.47

>  <PSA> (0449-0133)
145.91

>  <Chiral_centers> (0449-0133)
12

>  <Name> (0449-0133)
4-{7-[(4,5-dihydroxy-6-methyloxan-2-yl)oxy]-3a,5a-dihydroxy-9a-(hydroxymethyl)-11a-methyl-hexadecahydro-1H-cyclopenta[a]phenanthren-1-yl}-2,5-dihydrofuran-2-one

>  <Smile> (0449-0133)
CC1OC(OC2CC3(C(C4C(C5(O)CCC(C5(C)CC4)C4=CC(=O)OC4)CC3)(CO)CC2)O)CC(C1O)O

>  <Collection> (0449-0133)
DC

>  <InChI Key> (0449-0133)
KISYRRMFQYIIFQ-LZDNNAILSA-N

>  <PERCENTSP3> (0449-0133)
89.7

$$$$

  -ISIS-  -- StrEd -- 

 72 80  0  0  0  0  0  0  0  0999 V2000
    5.9045    3.6111    0.0000 C   0  0  0  0  0  0  0  0  0  0  0  0
    5.9045    4.2963    0.0000 C   0  0  0  0  0  0  0  0  0  0  0  0
   -4.3726   -6.0952    0.0000 C   0  0  0  0  0  0  0  0  0  0  0  0
    4.7821    3.6111    0.0000 C   0  0  2  0  0  0  0  0  0  0  0  0
    4.2393    3.3070    0.0000 C   0  0  0  0  0  0  0  0  0  0  0  0
   -5.0769   -7.0374    0.0000 C   0  0  0  0  0  0  0  0  0  0  0  0
    5.3529    3.3070    0.0000 C   0  0  1  0  0  0  0  0  0  0  0  0
   -6.4760   -7.0374    0.0000 C   0  0  0  0  0  0  0  0  0  0  0  0
   -5.0769   -5.1624    0.0000 O   0  0  0  0  0  0  0  0  0  0  0  0
   -4.3726   -3.2402    0.0000 C   0  0  0  0  0  0  0  0  0  0  0  0
    6.4949    4.4583    0.0000 C   0  0  0  0  0  0  0  0  0  0  0  0
    5.3529    4.5916    0.0000 C   0  0  0  0  0  0  0  0  0  0  0  0
    6.7706    5.3624    0.0000 C   0  0  0  0  0  0  0  0  0  0  0  0
   -4.3726   -4.6581    0.0000 O   0  0  0  0  0  0  0  0  0  0  0  0
   -3.7827   -4.0685    0.0000 C   0  0  0  0  0  0  0  0  0  0  0  0
   -7.1324   -6.0952    0.0000 C   0  0  0  0  0  0  0  0  0  0  0  0
   -1.9268   -0.4139    0.0000 C   0  0  0  0  0  0  0  0  0  0  0  0
    0.4043    1.4130    0.0000 C   0  0  0  0  0  0  0  0  0  0  0  0
   -6.4760   -5.1624    0.0000 C   0  0  0  0  0  0  0  0  0  0  0  0
   -1.9268   -3.2402    0.0000 C   0  0  0  0  0  0  0  0  0  0  0  0
    0.4043   -0.4139    0.0000 C   0  0  0  0  0  0  0  0  0  0  0  0
    4.7821    4.2963    0.0000 C   0  0  0  0  0  0  0  0  0  0  0  0
    2.5455    1.4130    0.0000 C   0  0  0  0  0  0  0  0  0  0  0  0
   -2.4981   -2.4031    0.0000 O   0  0  0  0  0  0  0  0  0  0  0  0
   -0.2141    0.3854    0.0000 O   0  0  0  0  0  0  0  0  0  0  0  0
   -2.4981   -4.0685    0.0000 C   0  0  0  0  0  0  0  0  0  0  0  0
    2.0032    2.1461    0.0000 O   0  0  0  0  0  0  0  0  0  0  0  0
   -0.2141   -1.1469    0.0000 C   0  0  0  0  0  0  0  0  0  0  0  0
    2.0032    0.7279    0.0000 C   0  0  0  0  0  0  0  0  0  0  0  0
    6.1807    6.0761    0.0000 C   0  0  0  0  0  0  0  0  0  0  0  0
    4.2393    2.6503    0.0000 C   0  0  0  0  0  0  0  0  0  0  0  0
   -1.3561   -1.1469    0.0000 C   0  0  0  0  0  0  0  0  0  0  0  0
    0.9279    0.7279    0.0000 C   0  0  0  0  0  0  0  0  0  0  0  0
   -3.7827   -2.4031    0.0000 C   0  0  0  0  0  0  0  0  0  0  0  0
    6.4949    3.4211    0.0000 C   0  0  0  0  0  0  0  0  0  0  0  0
    0.9279    2.1461    0.0000 C   0  0  0  0  0  0  0  0  0  0  0  0
   -1.3561    0.3854    0.0000 C   0  0  0  0  0  0  0  0  0  0  0  0
    6.7517    6.9230    0.0000 C   0  0  0  0  0  0  0  0  0  0  0  0
    0.4043    0.4522    0.0000 O   0  0  0  0  0  0  0  0  0  0  0  0
   -1.9268   -1.7560    0.0000 O   0  0  0  0  0  0  0  0  0  0  0  0
   -3.7827   -5.2579    0.0000 O   0  0  0  0  0  0  0  0  0  0  0  0
    7.6654    6.6184    0.0000 O   0  0  0  0  0  0  0  0  0  0  0  0
    6.8850    3.9538    0.0000 C   0  0  0  0  0  0  0  0  0  0  0  0
    3.6401    3.6111    0.0000 C   0  0  0  0  0  0  0  0  0  0  0  0
    5.3529    2.6503    0.0000 C   0  0  0  0  0  0  0  0  0  0  0  0
   -2.9358   -5.7334    0.0000 C   0  0  0  0  0  0  0  0  0  0  0  0
    7.6654    5.6860    0.0000 C   0  0  0  0  0  0  0  0  0  0  0  0
    2.5455    2.3076    0.0000 O   0  0  0  0  0  0  0  0  0  0  0  0
    3.6401    2.3552    0.0000 C   0  0  0  0  0  0  0  0  0  0  0  0
    4.7821    2.3552    0.0000 C   0  0  0  0  0  0  0  0  0  0  0  0
    5.9045    1.6227    0.0000 O   0  0  0  0  0  0  0  0  0  0  0  0
    6.4281    7.8556    0.0000 O   0  0  0  0  0  0  0  0  0  0  0  0
    3.1165    2.6503    0.0000 C   0  0  0  0  0  0  0  0  0  0  0  0
   -2.9358   -6.7136    0.0000 O   0  0  0  0  0  0  0  0  0  0  0  0
   -5.0769   -7.8556    0.0000 O   0  0  0  0  0  0  0  0  0  0  0  0
   -6.4092   -5.9808    0.0000 O   0  0  0  0  0  0  0  0  0  0  0  0
   -7.1135   -7.5799    0.0000 O   0  0  0  0  0  0  0  0  0  0  0  0
    5.8571    7.1226    0.0000 C   0  0  0  0  0  0  0  0  0  0  0  0
    5.2861    5.7525    0.0000 O   0  0  0  0  0  0  0  0  0  0  0  0
    3.1165    3.3070    0.0000 C   0  0  0  0  0  0  0  0  0  0  0  0
    0.9942   -0.3665    0.0000 O   0  0  0  0  0  0  0  0  0  0  0  0
   -1.3561   -1.9460    0.0000 O   0  0  0  0  0  0  0  0  0  0  0  0
    4.1728    4.5440    0.0000 C   0  0  0  0  0  0  0  0  0  0  0  0
   -6.4949   -3.9732    0.0000 C   0  0  0  0  0  0  0  0  0  0  0  0
   -7.6654   -3.2213    0.0000 O   0  0  0  0  0  0  0  0  0  0  0  0
    0.8992    3.2881    0.0000 C   0  0  0  0  0  0  0  0  0  0  0  0
   -1.3561    1.4607    0.0000 C   0  0  0  0  0  0  0  0  0  0  0  0
   -3.8493   -1.1182    0.0000 C   0  0  0  0  0  0  0  0  0  0  0  0
   -2.1080   -5.2579    0.0000 C   0  0  0  0  0  0  0  0  0  0  0  0
    4.8103    2.8501    0.0000 H   0  0  0  0  0  0  0  0  0  0  0  0
    5.3529    3.9732    0.0000 H   0  0  0  0  0  0  0  0  0  0  0  0
    4.2393    1.2989    0.0000 H   0  0  0  0  0  0  0  0  0  0  0  0
  2  1  1  0  0  0  0
  3 14  1  0  0  0  0
  4  7  1  0  0  0  0
  5  4  1  0  0  0  0
  6  3  1  0  0  0  0
  7  1  1  0  0  0  0
  8  6  1  0  0  0  0
  9  3  1  0  0  0  0
 10 15  1  0  0  0  0
 11  2  1  0  0  0  0
 12  2  1  0  0  0  0
 11 13  1  0  0  0  0
 10 14  1  0  0  0  0
 15 26  1  0  0  0  0
 16 19  1  0  0  0  0
 17 32  1  0  0  0  0
 18 33  1  0  0  0  0
 19  9  1  0  0  0  0
 20 40  1  0  0  0  0
 21 39  1  0  0  0  0
 22  4  1  0  0  0  0
 23 48  1  0  0  0  0
 24 20  1  0  0  0  0
 25 21  1  0  0  0  0
 26 20  1  0  0  0  0
 27 23  1  0  0  0  0
 28 21  1  0  0  0  0
 29 23  1  0  0  0  0
 30 13  2  0  0  0  0
 31 50  1  0  0  0  0
 32 28  1  0  0  0  0
 33 29  1  0  0  0  0
 34 24  1  0  0  0  0
 35  1  1  0  0  0  0
 36 27  1  0  0  0  0
 37 25  1  0  0  0  0
 38 30  1  0  0  0  0
 18 39  1  0  0  0  0
 17 40  1  0  0  0  0
 15 41  1  0  0  0  0
 42 47  1  0  0  0  0
 43 35  1  0  0  0  0
 44  5  1  0  0  0  0
 45  7  1  0  0  0  0
 46 41  1  0  0  0  0
 47 13  1  0  0  0  0
 53 48  1  0  0  0  0
 49 31  1  0  0  0  0
 50 45  1  0  0  0  0
  1 51  1  0  0  0  0
 52 38  2  0  0  0  0
 53 49  1  0  0  0  0
 54 46  2  0  0  0  0
  6 55  1  0  0  0  0
  8 56  1  0  0  0  0
 16 57  1  0  0  0  0
  2 58  1  0  0  0  0
 12 59  1  0  0  0  0
 60 44  1  0  0  0  0
 33 61  1  0  0  0  0
 32 62  1  0  0  0  0
  5 63  1  0  0  0  0
 19 64  1  0  0  0  0
 65 64  1  0  0  0  0
 36 66  1  0  0  0  0
 37 67  1  0  0  0  0
 34 68  1  0  0  0  0
 69 46  1  0  0  0  0
  4 70  1  6  0  0  0
  7 71  1  1  0  0  0
 31 72  1  0  0  0  0
 43 11  1  0  0  0  0
 12 22  1  0  0  0  0
  5 31  1  0  0  0  0
 60 53  1  0  0  0  0
 42 38  1  0  0  0  0
 36 18  1  0  0  0  0
 37 17  1  0  0  0  0
 34 10  1  0  0  0  0
  8 16  1  0  0  0  0
M  END
>  <IDNUMBER> (0449-0145)
0449-0145

>  <available> (0449-0145)
257

>  <H_acceptor> (0449-0145)
20

>  <H_donor> (0449-0145)
8

>  <B_rotN> (0449-0145)
20

>  <N_O> (0449-0145)
20

>  <logP> (0449-0145)
0.52

>  <logD> (0449-0145)
0.07

>  <logSw> (0449-0145)
-2.09

>  <PSA> (0449-0145)
288.28

>  <Chiral_centers> (0449-0145)
26

>  <Name> (0449-0145)
6-({6-[(6-{[3a,11-dihydroxy-9a,11a-dimethyl-1-(5-oxo-2,5-dihydrofuran-3-yl)-hexadecahydro-1H-cyclopenta[a]phenanthren-7-yl]oxy}-4-hydroxy-2-methyloxan-3-yl)oxy]-4-hydroxy-2-methyloxan-3-yl}oxy)-2-meth
yl-3-{[3,4,5-trihydroxy-6-(hydroxymethyl)oxan-2-yl]oxy}oxan-4-yl acetate

>  <Smile> (0449-0145)
CC(OC1C(C(OC(OC2C(OC(OC3C(OC(OC4CC5C(C6C(C7(O)CCC(C7(C)C(C6)O)C6=CC(=O)OC6)CC5)(CC4)C)CC3O)C)CC2O)C)C1)C)OC1C(C(C(C(O1)CO)O)O)O)=O

>  <Collection> (0449-0145)
DC

>  <InChI Key> (0449-0145)
JAYAGJDXJIDEKI-CUYVSJQBSA-N

>  <PERCENTSP3> (0449-0145)
91.8

$$$$

  -ISIS-  -- StrEd -- 

 51 57  0  0  0  0  0  0  0  0999 V2000
    4.0915    1.4708    0.0000 C   0  0  0  0  0  0  0  0  0  0  0  0
    4.0915    2.2877    0.0000 C   0  0  0  0  0  0  0  0  0  0  0  0
   -3.0637   -3.7580    0.0000 C   0  0  0  0  0  0  0  0  0  0  0  0
    1.8994    1.0282    0.0000 C   0  0  0  0  0  0  0  0  0  0  0  0
   -3.8467   -4.7384    0.0000 C   0  0  0  0  0  0  0  0  0  0  0  0
    1.8994    0.1974    0.0000 C   0  0  0  0  0  0  0  0  0  0  0  0
   -5.3514   -4.7384    0.0000 C   0  0  0  0  0  0  0  0  0  0  0  0
    3.3563    1.0282    0.0000 C   0  0  1  0  0  0  0  0  0  0  0  0
    2.6553    1.4708    0.0000 C   0  0  2  0  0  0  0  0  0  0  0  0
   -3.8467   -2.7437    0.0000 O   0  0  0  0  0  0  0  0  0  0  0  0
    5.2353    3.3156    0.0000 C   0  0  0  0  0  0  0  0  0  0  0  0
   -3.0637   -1.3888    0.0000 C   0  0  0  0  0  0  0  0  0  0  0  0
   -3.0637   -2.6483    0.0000 O   0  0  0  0  0  0  0  0  0  0  0  0
    4.8747    2.5329    0.0000 C   0  0  0  0  0  0  0  0  0  0  0  0
   -6.0731   -3.7580    0.0000 C   0  0  0  0  0  0  0  0  0  0  0  0
   -5.3514   -2.7437    0.0000 C   0  0  0  0  0  0  0  0  0  0  0  0
   -0.2861   -1.3888    0.0000 C   0  0  0  0  0  0  0  0  0  0  0  0
   -1.0077   -0.4563    0.0000 O   0  0  0  0  0  0  0  0  0  0  0  0
   -1.0077   -2.2877    0.0000 C   0  0  0  0  0  0  0  0  0  0  0  0
    4.8408    4.0715    0.0000 C   0  0  0  0  0  0  0  0  0  0  0  0
   -2.3626   -2.2877    0.0000 C   0  0  0  0  0  0  0  0  0  0  0  0
   -2.3626   -0.4563    0.0000 C   0  0  0  0  0  0  0  0  0  0  0  0
    5.4668    4.6571    0.0000 C   0  0  0  0  0  0  0  0  0  0  0  0
    4.8747    1.1914    0.0000 C   0  0  0  0  0  0  0  0  0  0  0  0
    3.3563    2.7096    0.0000 C   0  0  0  0  0  0  0  0  0  0  0  0
    1.1371   -0.2111    0.0000 C   0  0  0  0  0  0  0  0  0  0  0  0
    2.6553    2.2877    0.0000 C   0  0  0  0  0  0  0  0  0  0  0  0
    6.1683    4.2960    0.0000 O   0  0  0  0  0  0  0  0  0  0  0  0
    5.3514    1.8790    0.0000 C   0  0  0  0  0  0  0  0  0  0  0  0
    1.1371    1.4708    0.0000 C   0  0  0  0  0  0  0  0  0  0  0  0
    3.3563    0.1974    0.0000 C   0  0  0  0  0  0  0  0  0  0  0  0
    2.6553   -0.2111    0.0000 C   0  0  0  0  0  0  0  0  0  0  0  0
    6.0524    3.4654    0.0000 C   0  0  0  0  0  0  0  0  0  0  0  0
   -0.2861   -0.2452    0.0000 O   0  0  0  0  0  0  0  0  0  0  0  0
    0.4628    0.1974    0.0000 C   0  0  0  0  0  0  0  0  0  0  0  0
    5.1401    5.6033    0.0000 O   0  0  0  0  0  0  0  0  0  0  0  0
    4.1258    0.3267    0.0000 O   0  0  0  0  0  0  0  0  0  0  0  0
   -3.8467   -5.6033    0.0000 O   0  0  0  0  0  0  0  0  0  0  0  0
    1.8994   -0.9191    0.0000 O   0  0  0  0  0  0  0  0  0  0  0  0
   -5.3514   -3.7787    0.0000 O   0  0  0  0  0  0  0  0  0  0  0  0
   -6.0731   -5.0040    0.0000 O   0  0  0  0  0  0  0  0  0  0  0  0
    0.4628    1.0282    0.0000 C   0  0  0  0  0  0  0  0  0  0  0  0
    4.0915    3.4791    0.0000 C   0  0  0  0  0  0  0  0  0  0  0  0
   -2.3626   -3.1250    0.0000 O   0  0  0  0  0  0  0  0  0  0  0  0
    1.8860    2.6757    0.0000 C   0  0  0  0  0  0  0  0  0  0  0  0
   -5.3514   -1.7497    0.0000 C   0  0  0  0  0  0  0  0  0  0  0  0
   -6.1683   -1.0825    0.0000 O   0  0  0  0  0  0  0  0  0  0  0  0
   -2.3761    0.5039    0.0000 C   0  0  0  0  0  0  0  0  0  0  0  0
   -1.5114   -3.6424    0.0000 C   0  0  0  0  0  0  0  0  0  0  0  0
    2.6553    0.6536    0.0000 H   0  0  0  0  0  0  0  0  0  0  0  0
    3.3563    1.7634    0.0000 H   0  0  0  0  0  0  0  0  0  0  0  0
  2  1  1  0  0  0  0
  3 13  1  0  0  0  0
  4  9  1  0  0  0  0
  5  3  1  0  0  0  0
  6 32  1  0  0  0  0
  7  5  1  0  0  0  0
  8  1  1  0  0  0  0
  9  8  1  0  0  0  0
 10  3  1  0  0  0  0
 14 11  1  0  0  0  0
 12 21  1  0  0  0  0
 12 13  1  0  0  0  0
 14  2  1  0  0  0  0
 15 16  1  0  0  0  0
 16 10  1  0  0  0  0
 17 34  1  0  0  0  0
 18 17  1  0  0  0  0
 19 17  1  0  0  0  0
 20 11  2  0  0  0  0
 21 19  1  0  0  0  0
 22 18  1  0  0  0  0
 23 20  1  0  0  0  0
 24  1  1  0  0  0  0
 25  2  1  0  0  0  0
 26  6  1  0  0  0  0
 27  9  1  0  0  0  0
 28 33  1  0  0  0  0
 29 24  1  0  0  0  0
 30  4  1  0  0  0  0
 31  8  1  0  0  0  0
 32 31  1  0  0  0  0
 33 11  1  0  0  0  0
 35 34  1  0  0  0  0
 35 26  1  0  0  0  0
 36 23  2  0  0  0  0
  1 37  1  0  0  0  0
  5 38  1  0  0  0  0
  6 39  1  0  0  0  0
  7 40  1  0  0  0  0
 15 41  1  0  0  0  0
 42 30  1  0  0  0  0
  2 43  1  0  0  0  0
 21 44  1  0  0  0  0
  4 45  1  0  0  0  0
 16 46  1  0  0  0  0
 47 46  1  0  0  0  0
 22 48  1  0  0  0  0
 49 44  1  0  0  0  0
  9 50  1  6  0  0  0
  8 51  1  1  0  0  0
 29 14  1  0  0  0  0
 25 27  1  0  0  0  0
  4  6  1  0  0  0  0
 42 35  1  0  0  0  0
 28 23  1  0  0  0  0
 12 22  1  0  0  0  0
  7 15  1  0  0  0  0
M  END
>  <IDNUMBER> (0449-0150)
0449-0150

>  <available> (0449-0150)
278

>  <H_acceptor> (0449-0150)
13

>  <H_donor> (0449-0150)
6

>  <B_rotN> (0449-0150)
13

>  <N_O> (0449-0150)
13

>  <logP> (0449-0150)
0.64

>  <logD> (0449-0150)
0.17

>  <logSw> (0449-0150)
-1.94

>  <PSA> (0449-0150)
193.83

>  <Chiral_centers> (0449-0150)
17

>  <Name> (0449-0150)
4-{3a,5a-dihydroxy-7-[(4-methoxy-6-methyl-5-{[3,4,5-trihydroxy-6-(hydroxymethyl)oxan-2-yl]oxy}oxan-2-yl)oxy]-9a,11a-dimethyl-hexadecahydro-1H-cyclopenta[a]phenanthren-1-yl}-2,5-dihydrofuran-2-one

>  <Smile> (0449-0150)
COC1C(C(OC(OC2CC3(C(C4C(C5(O)CCC(C5(C)CC4)C4=CC(=O)OC4)CC3)(CC2)C)O)C1)C)OC1C(C(C(C(O1)CO)O)O)O

>  <Collection> (0449-0150)
DC

>  <InChI Key> (0449-0150)
KWBPKUMWVXUSCA-AWQBPVPBSA-N

>  <PERCENTSP3> (0449-0150)
91.7

$$$$

  -ISIS-  -- StrEd -- 

 44 49  0  0  0  0  0  0  0  0999 V2000
    1.8888    0.5277    0.0000 C   0  0  0  0  0  0  0  0  0  0  0  0
    1.8888    1.3979    0.0000 C   0  0  0  0  0  0  0  0  0  0  0  0
   -0.4690    0.0524    0.0000 C   0  0  0  0  0  0  0  0  0  0  0  0
    3.1168    2.5091    0.0000 C   0  0  0  0  0  0  0  0  0  0  0  0
    1.1050    0.0524    0.0000 C   0  0  1  0  0  0  0  0  0  0  0  0
    2.7342    1.6634    0.0000 C   0  0  0  0  0  0  0  0  0  0  0  0
    2.7342    0.2315    0.0000 C   0  0  0  0  0  0  0  0  0  0  0  0
    0.3456    0.5277    0.0000 C   0  0  2  0  0  0  0  0  0  0  0  0
    3.2343    0.9721    0.0000 C   0  0  0  0  0  0  0  0  0  0  0  0
   -2.8206   -2.5398    0.0000 C   0  0  0  0  0  0  0  0  0  0  0  0
   -3.5799   -1.5337    0.0000 O   0  0  0  0  0  0  0  0  0  0  0  0
    2.7035    3.3238    0.0000 C   0  0  0  0  0  0  0  0  0  0  0  0
   -3.5799   -3.5027    0.0000 C   0  0  0  0  0  0  0  0  0  0  0  0
   -0.4690   -0.8362    0.0000 C   0  0  0  0  0  0  0  0  0  0  0  0
   -5.7833   -2.5398    0.0000 C   0  0  0  0  0  0  0  0  0  0  0  0
    1.1050    1.8610    0.0000 C   0  0  0  0  0  0  0  0  0  0  0  0
    3.3514    3.9473    0.0000 C   0  0  0  0  0  0  0  0  0  0  0  0
   -5.0304   -3.5027    0.0000 C   0  0  0  0  0  0  0  0  0  0  0  0
   -5.0304   -1.5337    0.0000 C   0  0  0  0  0  0  0  0  0  0  0  0
    0.3456    1.3979    0.0000 C   0  0  0  0  0  0  0  0  0  0  0  0
    4.2590    0.9721    0.0000 O   0  0  0  0  0  0  0  0  0  0  0  0
    4.1108    3.5643    0.0000 O   0  0  0  0  0  0  0  0  0  0  0  0
   -1.2837    0.5277    0.0000 C   0  0  0  0  0  0  0  0  0  0  0  0
    1.1050   -0.8362    0.0000 C   0  0  0  0  0  0  0  0  0  0  0  0
    3.9934    2.6572    0.0000 C   0  0  0  0  0  0  0  0  0  0  0  0
    4.7774    0.1265    0.0000 C   0  0  0  0  0  0  0  0  0  0  0  0
   -2.8206   -1.3115    0.0000 O   0  0  0  0  0  0  0  0  0  0  0  0
   -1.2837   -1.2806    0.0000 C   0  0  0  0  0  0  0  0  0  0  0  0
    0.3456   -1.2806    0.0000 C   0  0  0  0  0  0  0  0  0  0  0  0
    1.8704   -0.7621    0.0000 O   0  0  0  0  0  0  0  0  0  0  0  0
    3.0120    4.9532    0.0000 O   0  0  0  0  0  0  0  0  0  0  0  0
   -2.0059   -0.8362    0.0000 C   0  0  0  0  0  0  0  0  0  0  0  0
    4.3145   -0.7621    0.0000 O   0  0  0  0  0  0  0  0  0  0  0  0
    1.8888    2.6882    0.0000 C   0  0  0  0  0  0  0  0  0  0  0  0
   -2.0059    0.0524    0.0000 C   0  0  0  0  0  0  0  0  0  0  0  0
   -5.7708   -1.5337    0.0000 O   0  0  0  0  0  0  0  0  0  0  0  0
   -5.0304   -4.3913    0.0000 O   0  0  0  0  0  0  0  0  0  0  0  0
   -0.4690    1.3674    0.0000 C   0  0  0  0  0  0  0  0  0  0  0  0
   -5.0179   -2.4225    0.0000 C   0  0  0  0  0  0  0  0  0  0  0  0
    5.7833    0.1265    0.0000 C   0  0  0  0  0  0  0  0  0  0  0  0
   -4.1293   -4.9532    0.0000 C   0  0  0  0  0  0  0  0  0  0  0  0
    0.3456   -0.3486    0.0000 H   0  0  0  0  0  0  0  0  0  0  0  0
    1.1050    0.8485    0.0000 H   0  0  0  0  0  0  0  0  0  0  0  0
   -0.4690   -2.0213    0.0000 H   0  0  0  0  0  0  0  0  0  0  0  0
  2  1  1  0  0  0  0
  3  8  1  0  0  0  0
  6  4  1  0  0  0  0
  5  1  1  0  0  0  0
  6  2  1  0  0  0  0
  7  1  1  0  0  0  0
  8  5  1  0  0  0  0
  9  7  1  0  0  0  0
 10 27  1  0  0  0  0
 11 10  1  0  0  0  0
 12  4  2  0  0  0  0
 13 10  1  0  0  0  0
 14 29  1  0  0  0  0
 15 18  1  0  0  0  0
 16  2  1  0  0  0  0
 17 12  1  0  0  0  0
 18 13  1  0  0  0  0
 19 11  1  0  0  0  0
 20  8  1  0  0  0  0
  9 21  1  0  0  0  0
 22 25  1  0  0  0  0
 23  3  1  0  0  0  0
 24  5  1  0  0  0  0
 25  4  1  0  0  0  0
 26 21  1  0  0  0  0
 32 27  1  0  0  0  0
 28 14  1  0  0  0  0
 29 24  1  0  0  0  0
  1 30  1  0  0  0  0
 31 17  2  0  0  0  0
 32 28  1  0  0  0  0
 33 26  2  0  0  0  0
  2 34  1  0  0  0  0
 35 23  1  0  0  0  0
 15 36  1  0  0  0  0
 18 37  1  0  0  0  0
  3 38  1  0  0  0  0
 19 39  1  0  0  0  0
 40 26  1  0  0  0  0
 41 37  1  0  0  0  0
  8 42  1  6  0  0  0
  5 43  1  1  0  0  0
 14 44  1  0  0  0  0
  9  6  1  0  0  0  0
 16 20  1  0  0  0  0
  3 14  1  0  0  0  0
 35 32  1  0  0  0  0
 22 17  1  0  0  0  0
 15 19  1  0  0  0  0
M  END
>  <IDNUMBER> (0449-0151)
0449-0151

>  <available> (0449-0151)
184

>  <H_acceptor> (0449-0151)
9

>  <H_donor> (0449-0151)
2

>  <B_rotN> (0449-0151)
8

>  <N_O> (0449-0151)
9

>  <logP> (0449-0151)
2.67

>  <logD> (0449-0151)
2.26

>  <logSw> (0449-0151)
-5.8

>  <PSA> (0449-0151)
120.75

>  <Chiral_centers> (0449-0151)
13

>  <Name> (0449-0151)
3a-hydroxy-7-[(5-hydroxy-4-methoxy-6-methyloxan-2-yl)oxy]-9a,11a-dimethyl-1-(5-oxo-2,5-dihydrofuran-3-yl)-hexadecahydro-1H-cyclopenta[a]phenanthren-2-yl acetate

>  <Smile> (0449-0151)
COC1CC(OC2CC3C(C4C(C5(O)CC(C(C5(C)CC4)C4=CC(=O)OC4)OC(=O)C)CC3)(CC2)C)OC(C1O)C

>  <Collection> (0449-0151)
DC

>  <InChI Key> (0449-0151)
JLPDBLFIVFSOCC-HTIGCILGSA-N

>  <PERCENTSP3> (0449-0151)
87.5

$$$$

  -ISIS-  -- StrEd -- 

 26 29  0  0  0  0  0  0  0  0999 V2000
   -0.4746    1.1760    0.0000 C   0  0  0  0  0  0  0  0  0  0  0  0
   -0.4746    0.1643    0.0000 C   0  0  0  0  0  0  0  0  0  0  0  0
   -2.2059    0.1643    0.0000 C   0  0  0  0  0  0  0  0  0  0  0  0
   -1.3373   -0.3444    0.0000 C   0  0  0  0  0  0  0  0  0  0  0  0
   -3.0684   -0.3444    0.0000 C   0  0  0  0  0  0  0  0  0  0  0  0
    0.4748    1.5046    0.0000 C   0  0  2  0  0  0  0  0  0  0  0  0
   -1.3373    1.6847    0.0000 C   0  0  0  0  0  0  0  0  0  0  0  0
   -2.2059    1.1760    0.0000 C   0  0  0  0  0  0  0  0  0  0  0  0
    0.5057   -0.1643    0.0000 C   0  0  0  0  0  0  0  0  0  0  0  0
   -1.3373   -1.3558    0.0000 C   0  0  0  0  0  0  0  0  0  0  0  0
   -3.0684   -1.3558    0.0000 C   0  0  1  0  0  0  0  0  0  0  0  0
    1.0704    0.6670    0.0000 C   0  0  0  0  0  0  0  0  0  0  0  0
   -2.2059   -1.8648    0.0000 C   0  0  0  0  0  0  0  0  0  0  0  0
    0.4748    2.3672    0.0000 O   0  0  0  0  0  0  0  0  0  0  0  0
   -0.4746    2.1005    0.0000 C   0  0  0  0  0  0  0  0  0  0  0  0
   -3.0684    0.6670    0.0000 C   0  0  0  0  0  0  0  0  0  0  0  0
   -3.9309    0.1643    0.0000 C   0  0  0  0  0  0  0  0  0  0  0  0
    2.2060    1.1760    0.0000 N   0  0  0  0  0  0  0  0  0  0  0  0
    1.4302    1.8335    0.0000 C   0  0  0  0  0  0  0  0  0  0  0  0
    4.8245    1.1760    0.0000 O   0  0  0  0  0  0  0  0  0  0  0  0
   -3.9309   -1.8648    0.0000 C   0  0  0  0  0  0  0  0  0  0  0  0
    3.1305    1.5046    0.0000 C   0  0  0  0  0  0  0  0  0  0  0  0
    3.9000    0.8469    0.0000 C   0  0  0  0  0  0  0  0  0  0  0  0
   -4.8245   -0.3444    0.0000 C   0  0  0  0  0  0  0  0  0  0  0  0
   -4.7935   -1.3558    0.0000 C   0  0  0  0  0  0  0  0  0  0  0  0
   -3.0684   -2.3672    0.0000 H   0  0  0  0  0  0  0  0  0  0  0  0
  2  1  1  0  0  0  0
  3  8  1  0  0  0  0
  4  2  1  0  0  0  0
  5  3  1  0  0  0  0
  6  1  1  0  0  0  0
  7  1  1  0  0  0  0
  8  7  1  0  0  0  0
  9  2  1  0  0  0  0
 10  4  1  0  0  0  0
 11  5  1  0  0  0  0
 12  6  1  0  0  0  0
 13 10  1  0  0  0  0
 14  6  1  0  0  0  0
  1 15  1  0  0  0  0
  5 16  1  0  0  0  0
 17  5  1  0  0  0  0
 18 19  1  0  0  0  0
  6 19  1  6  0  0  0
 20 23  1  0  0  0  0
 21 11  1  0  0  0  0
 22 18  1  0  0  0  0
 23 22  1  0  0  0  0
 24 17  1  0  0  0  0
 25 24  1  0  0  0  0
 11 26  1  6  0  0  0
 12  9  1  0  0  0  0
  4  3  1  0  0  0  0
 13 11  1  0  0  0  0
 21 25  1  0  0  0  0
M  END
>  <IDNUMBER> (1080-0568)
1080-0568

>  <available> (1080-0568)
192

>  <H_acceptor> (1080-0568)
3

>  <H_donor> (1080-0568)
3

>  <B_rotN> (1080-0568)
6

>  <N_O> (1080-0568)
3

>  <logP> (1080-0568)
3.97

>  <logD> (1080-0568)
3.46

>  <logSw> (1080-0568)
-4.1

>  <PSA> (1080-0568)
52.49

>  <Chiral_centers> (1080-0568)
7

>  <Name> (1080-0568)
1-{[(2-hydroxyethyl)amino]methyl}-9a,11a-dimethyl-hexadecahydro-1H-cyclopenta[a]phenanthren-1-ol

>  <Smile> (1080-0568)
C1CC2C(C3CCC4(C)C(CCC4C3CC2)(CNCCO)O)(C)CC1

>  <Collection> (1080-0568)
DC

>  <InChI Key> (1080-0568)
GLWKVBMAXIHLJD-RWANMCMYSA-N

>  <PERCENTSP3> (1080-0568)
100

$$$$

  -ISIS-  -- StrEd -- 

 64 72  0  0  0  0  0  0  0  0999 V2000
    4.0821    3.0136    0.0000 C   0  0  0  0  0  0  0  0  0  0  0  0
   -6.5295   -1.3247    0.0000 C   0  0  0  0  0  0  0  0  0  0  0  0
    6.2514    4.2403    0.0000 C   0  0  2  0  0  0  0  0  0  0  0  0
   -5.8591   -0.4773    0.0000 C   0  0  0  0  0  0  0  0  0  0  0  0
    4.0821    2.1153    0.0000 C   0  0  0  0  0  0  0  0  0  0  0  0
   -6.4790   -5.0625    0.0000 C   0  0  0  0  0  0  0  0  0  0  0  0
   -4.1707   -0.5659    0.0000 C   0  0  0  0  0  0  0  0  0  0  0  0
   -1.5651   -0.5659    0.0000 C   0  0  0  0  0  0  0  0  0  0  0  0
   -7.1491   -5.9096    0.0000 C   0  0  0  0  0  0  0  0  0  0  0  0
   -2.2290   -1.4196    0.0000 C   0  0  0  0  0  0  0  0  0  0  0  0
    1.7611    1.6793    0.0000 C   0  0  0  0  0  0  0  0  0  0  0  0
    4.8599    3.4560    0.0000 C   0  0  0  0  0  0  0  0  0  0  0  0
   -7.8133   -1.3247    0.0000 C   0  0  0  0  0  0  0  0  0  0  0  0
   -3.5190   -1.4196    0.0000 C   0  0  0  0  0  0  0  0  0  0  0  0
   -8.4395   -5.9096    0.0000 C   0  0  0  0  0  0  0  0  0  0  0  0
    6.3023    3.5318    0.0000 O   0  0  0  0  0  0  0  0  0  0  0  0
    5.6318    3.0136    0.0000 C   0  0  0  0  0  0  0  0  0  0  0  0
   -6.5295   -1.8432    0.0000 O   0  0  0  0  0  0  0  0  0  0  0  0
    2.5329    2.1153    0.0000 C   0  0  0  0  0  0  0  0  0  0  0  0
    3.3108    1.6793    0.0000 C   0  0  0  0  0  0  0  0  0  0  0  0
   -6.5295    0.4014    0.0000 O   0  0  0  0  0  0  0  0  0  0  0  0
   -7.1491   -4.1835    0.0000 O   0  0  0  0  0  0  0  0  0  0  0  0
   -2.2290    0.3128    0.0000 O   0  0  0  0  0  0  0  0  0  0  0  0
   -5.0687    0.1739    0.0000 O   0  0  0  0  0  0  0  0  0  0  0  0
   -8.4710   -0.4773    0.0000 C   0  0  0  0  0  0  0  0  0  0  0  0
   -9.0909   -5.0625    0.0000 C   0  0  0  0  0  0  0  0  0  0  0  0
   -3.5190    0.3128    0.0000 C   0  0  0  0  0  0  0  0  0  0  0  0
   -8.4395   -4.1835    0.0000 C   0  0  0  0  0  0  0  0  0  0  0  0
   -7.8133    0.4014    0.0000 C   0  0  0  0  0  0  0  0  0  0  0  0
    5.6318    2.1153    0.0000 C   0  0  0  0  0  0  0  0  0  0  0  0
    4.8287    4.1392    0.0000 C   0  0  2  0  0  0  0  0  0  0  0  0
    7.0105    5.3977    0.0000 O   0  0  0  0  0  0  0  0  0  0  0  0
    1.7611    0.8000    0.0000 C   0  0  2  0  0  0  0  0  0  0  0  0
    3.3108    3.4560    0.0000 C   0  0  0  0  0  0  0  0  0  0  0  0
    2.5329    3.0136    0.0000 C   0  0  0  0  0  0  0  0  0  0  0  0
   -1.5651    0.0409    0.0000 O   0  0  0  0  0  0  0  0  0  0  0  0
    0.9707    2.1153    0.0000 C   0  0  0  0  0  0  0  0  0  0  0  0
    3.3108    0.8000    0.0000 C   0  0  0  0  0  0  0  0  0  0  0  0
    7.1937    4.5946    0.0000 C   0  0  0  0  0  0  0  0  0  0  0  0
    0.9707    0.3574    0.0000 C   0  0  0  0  0  0  0  0  0  0  0  0
    2.5329    0.3574    0.0000 C   0  0  0  0  0  0  0  0  0  0  0  0
    0.1994    0.8000    0.0000 C   0  0  0  0  0  0  0  0  0  0  0  0
   -7.1491   -6.4284    0.0000 O   0  0  0  0  0  0  0  0  0  0  0  0
   -2.2290   -1.9321    0.0000 O   0  0  0  0  0  0  0  0  0  0  0  0
   -7.8133   -0.7810    0.0000 O   0  0  0  0  0  0  0  0  0  0  0  0
   -3.5381   -0.7935    0.0000 O   0  0  0  0  0  0  0  0  0  0  0  0
   -8.4395   -5.3659    0.0000 O   0  0  0  0  0  0  0  0  0  0  0  0
   -9.0909   -5.6378    0.0000 O   0  0  0  0  0  0  0  0  0  0  0  0
   -8.4710   -1.0528    0.0000 O   0  0  0  0  0  0  0  0  0  0  0  0
    4.0696    3.9560    0.0000 C   0  0  0  0  0  0  0  0  0  0  0  0
    8.1042    4.9866    0.0000 C   0  0  0  0  0  0  0  0  0  0  0  0
    0.1994    1.6793    0.0000 C   0  0  0  0  0  0  0  0  0  0  0  0
    1.7611    2.6213    0.0000 C   0  0  0  0  0  0  0  0  0  0  0  0
    8.2434    4.2150    0.0000 C   0  0  0  0  0  0  0  0  0  0  0  0
   -3.5190    0.8571    0.0000 C   0  0  0  0  0  0  0  0  0  0  0  0
   -8.4395   -3.6332    0.0000 C   0  0  0  0  0  0  0  0  0  0  0  0
   -7.8133    0.9517    0.0000 C   0  0  0  0  0  0  0  0  0  0  0  0
    9.0909    5.4861    0.0000 C   0  0  0  0  0  0  0  0  0  0  0  0
    3.9494    4.6954    0.0000 C   0  0  0  0  0  0  0  0  0  0  0  0
   -6.9534    1.2994    0.0000 O   0  0  0  0  0  0  0  0  0  0  0  0
   -2.6846    1.3565    0.0000 O   0  0  0  0  0  0  0  0  0  0  0  0
   -7.6045   -3.1969    0.0000 O   0  0  0  0  0  0  0  0  0  0  0  0
    9.0909    6.4284    0.0000 C   0  0  0  0  0  0  0  0  0  0  0  0
    1.8372   -0.2497    0.0000 H   0  0  0  0  0  0  0  0  0  0  0  0
  2  4  1  0  0  0  0
  3 31  1  0  0  0  0
  4 24  1  0  0  0  0
  5  1  1  0  0  0  0
  6 18  1  0  0  0  0
  7 27  1  0  0  0  0
  8 36  1  0  0  0  0
  9  6  1  0  0  0  0
 10  8  1  0  0  0  0
 19 11  1  0  0  0  0
 12  1  1  0  0  0  0
 13  2  1  0  0  0  0
 14 10  1  0  0  0  0
 15  9  1  0  0  0  0
 17 16  1  0  0  0  0
 17 12  1  0  0  0  0
  2 18  1  0  0  0  0
 19 35  1  0  0  0  0
 20  5  1  0  0  0  0
 21  4  1  0  0  0  0
 22  6  1  0  0  0  0
 23  8  1  0  0  0  0
  7 24  1  0  0  0  0
 25 29  1  0  0  0  0
 26 28  1  0  0  0  0
 27 23  1  0  0  0  0
 28 22  1  0  0  0  0
 29 21  1  0  0  0  0
 30  5  1  0  0  0  0
 31 12  1  0  0  0  0
  3 32  1  6  0  0  0
 33 11  1  0  0  0  0
 34  1  1  0  0  0  0
 35 34  1  0  0  0  0
 42 36  1  0  0  0  0
 37 11  1  0  0  0  0
 38 20  1  0  0  0  0
 39  3  1  0  0  0  0
 40 33  1  0  0  0  0
 41 38  1  0  0  0  0
 42 52  1  0  0  0  0
  9 43  1  0  0  0  0
 10 44  1  0  0  0  0
 13 45  1  0  0  0  0
 14 46  1  0  0  0  0
 15 47  1  0  0  0  0
 26 48  1  0  0  0  0
 25 49  1  0  0  0  0
  1 50  1  0  0  0  0
 51 32  1  0  0  0  0
 52 37  1  0  0  0  0
 11 53  1  0  0  0  0
 54 39  1  0  0  0  0
 27 55  1  0  0  0  0
 28 56  1  0  0  0  0
 29 57  1  0  0  0  0
 58 54  1  0  0  0  0
 31 59  1  6  0  0  0
 60 57  1  0  0  0  0
 61 55  1  0  0  0  0
 62 56  1  0  0  0  0
 58 63  1  0  0  0  0
 33 64  1  6  0  0  0
 30 17  1  0  0  0  0
 19 20  1  0  0  0  0
 16  3  1  0  0  0  0
 33 41  1  0  0  0  0
 51 58  1  0  0  0  0
 40 42  1  0  0  0  0
  7 14  1  0  0  0  0
 25 13  1  0  0  0  0
 26 15  1  0  0  0  0
M  END
>  <IDNUMBER> (N006-0004)
N006-0004

>  <available> (N006-0004)
42

>  <H_acceptor> (N006-0004)
18

>  <H_donor> (N006-0004)
10

>  <B_rotN> (N006-0004)
19

>  <N_O> (N006-0004)
18

>  <logP> (N006-0004)
-0.36

>  <logD> (N006-0004)
-1.31

>  <logSw> (N006-0004)
-4.69

>  <PSA> (N006-0004)
276.14

>  <Chiral_centers> (N006-0004)
27

>  <Name> (N006-0004)
2-[(2-{[4,5-DIHYDROXY-2-(HYDROXYMETHYL)-6-{5,7',9',13'-TETRAMETHYL-5'-OXASPIRO[OXANE-2,6'-PENTACYCLO[10.8.0.0^(2,9).0^(4,8).0^(13,18)]ICOSANE]OXY}OXAN-3-YL]OXY}-4,5-DIHYDROXY-6-(HYDROXYMETHYL)OXAN-3-Y
L)OXY]-6-(HYDROXYMETHYL)OXANE-3,4,5-TRIOL

>  <Smile> (N006-0004)
CC1COC2(OC3C(C4(C)CCC5C6(C)C(CCC5C4C3)CC(OC3C(C(C(OC4C(OC5C(C(O)C(C(O5)CO)O)O)C(C(C(O4)CO)O)O)C(O3)CO)O)O)CC6)C2C)CC1

>  <Collection> (N006-0004)
DC

>  <InChI Key> (N006-0004)
JNTJNUDLVQQYGM-BURHAOGISA-N

>  <PERCENTSP3> (N006-0004)
100

$$$$

  -ISIS-  -- StrEd -- 

 62 70  0  0  0  0  0  0  0  0999 V2000
    2.5350    3.3540    0.0000 C   0  0  0  0  0  0  0  0  0  0  0  0
   -2.7283   -0.9933    0.0000 C   0  0  0  0  0  0  0  0  0  0  0  0
   -3.9988   -0.9933    0.0000 C   0  0  0  0  0  0  0  0  0  0  0  0
    4.6715    4.5688    0.0000 C   0  0  2  0  0  0  0  0  0  0  0  0
    2.5350    2.4757    0.0000 C   0  0  0  0  0  0  0  0  0  0  0  0
   -2.6969   -4.2072    0.0000 C   0  0  0  0  0  0  0  0  0  0  0  0
   -5.4315    2.3078    0.0000 C   0  0  0  0  0  0  0  0  0  0  0  0
   -2.0677   -0.1587    0.0000 C   0  0  0  0  0  0  0  0  0  0  0  0
    0.2493    2.0398    0.0000 C   0  0  0  0  0  0  0  0  0  0  0  0
   -3.3570   -5.0418    0.0000 C   0  0  0  0  0  0  0  0  0  0  0  0
   -6.0914    1.4731    0.0000 C   0  0  0  0  0  0  0  0  0  0  0  0
    3.2950    3.7902    0.0000 C   0  0  0  0  0  0  0  0  0  0  0  0
   -4.6276   -5.0418    0.0000 C   0  0  0  0  0  0  0  0  0  0  0  0
   -7.3619    1.4731    0.0000 C   0  0  0  0  0  0  0  0  0  0  0  0
    0.2493    1.1743    0.0000 C   0  0  0  0  0  0  0  0  0  0  0  0
    4.7152    3.8647    0.0000 O   0  0  0  0  0  0  0  0  0  0  0  0
    4.0611    3.3540    0.0000 C   0  0  0  0  0  0  0  0  0  0  0  0
   -2.7283   -1.5040    0.0000 O   0  0  0  0  0  0  0  0  0  0  0  0
   -5.1634    2.9244    0.0000 O   0  0  0  0  0  0  0  0  0  0  0  0
    1.0091    2.4757    0.0000 C   0  0  0  0  0  0  0  0  0  0  0  0
    1.7752    2.0398    0.0000 C   0  0  0  0  0  0  0  0  0  0  0  0
   -3.3570   -3.3417    0.0000 O   0  0  0  0  0  0  0  0  0  0  0  0
   -2.7283    0.7131    0.0000 O   0  0  0  0  0  0  0  0  0  0  0  0
   -4.6404   -0.1587    0.0000 C   0  0  0  0  0  0  0  0  0  0  0  0
   -6.0914    3.1798    0.0000 O   0  0  0  0  0  0  0  0  0  0  0  0
   -5.2693   -4.2072    0.0000 C   0  0  0  0  0  0  0  0  0  0  0  0
   -8.0037    2.3078    0.0000 C   0  0  0  0  0  0  0  0  0  0  0  0
   -3.9988    0.7131    0.0000 C   0  0  0  0  0  0  0  0  0  0  0  0
   -4.6276   -3.3417    0.0000 C   0  0  0  0  0  0  0  0  0  0  0  0
    4.0611    2.4757    0.0000 C   0  0  0  0  0  0  0  0  0  0  0  0
    3.2702    4.4626    0.0000 C   0  0  2  0  0  0  0  0  0  0  0  0
    5.4936    5.5526    0.0000 O   0  0  0  0  0  0  0  0  0  0  0  0
   -7.3619    3.1798    0.0000 C   0  0  0  0  0  0  0  0  0  0  0  0
    1.7752    3.7902    0.0000 C   0  0  0  0  0  0  0  0  0  0  0  0
    1.0091    0.7382    0.0000 C   0  0  0  0  0  0  0  0  0  0  0  0
    1.7752    1.1743    0.0000 C   0  0  0  0  0  0  0  0  0  0  0  0
    1.0091    3.3540    0.0000 C   0  0  0  0  0  0  0  0  0  0  0  0
   -2.1302    0.7256    0.0000 O   0  0  0  0  0  0  0  0  0  0  0  0
   -0.5293    2.4757    0.0000 C   0  0  0  0  0  0  0  0  0  0  0  0
   -0.5293    0.7382    0.0000 C   0  0  0  0  0  0  0  0  0  0  0  0
    5.5995    4.9113    0.0000 C   0  0  0  0  0  0  0  0  0  0  0  0
   -1.2891    1.1743    0.0000 C   0  0  0  0  0  0  0  0  0  0  0  0
   -3.3570   -5.5526    0.0000 O   0  0  0  0  0  0  0  0  0  0  0  0
   -6.0914    0.9624    0.0000 O   0  0  0  0  0  0  0  0  0  0  0  0
   -7.3745    0.9187    0.0000 O   0  0  0  0  0  0  0  0  0  0  0  0
   -4.6276   -4.5065    0.0000 O   0  0  0  0  0  0  0  0  0  0  0  0
   -4.6404   -0.7256    0.0000 O   0  0  0  0  0  0  0  0  0  0  0  0
   -5.2693   -4.7742    0.0000 O   0  0  0  0  0  0  0  0  0  0  0  0
   -8.0348    3.0301    0.0000 O   0  0  0  0  0  0  0  0  0  0  0  0
    2.5227    4.2821    0.0000 C   0  0  0  0  0  0  0  0  0  0  0  0
    6.5584    5.0607    0.0000 C   0  0  0  0  0  0  0  0  0  0  0  0
   -1.2891    2.0398    0.0000 C   0  0  0  0  0  0  0  0  0  0  0  0
    0.2493    2.9679    0.0000 C   0  0  0  0  0  0  0  0  0  0  0  0
    6.6335    4.5377    0.0000 C   0  0  0  0  0  0  0  0  0  0  0  0
   -3.9988    1.2489    0.0000 C   0  0  0  0  0  0  0  0  0  0  0  0
   -4.6276   -2.7996    0.0000 C   0  0  0  0  0  0  0  0  0  0  0  0
    7.4992    5.2101    0.0000 C   0  0  0  0  0  0  0  0  0  0  0  0
    2.3981    5.0170    0.0000 C   0  0  0  0  0  0  0  0  0  0  0  0
   -3.8055   -2.3700    0.0000 O   0  0  0  0  0  0  0  0  0  0  0  0
   -3.2325    1.7719    0.0000 O   0  0  0  0  0  0  0  0  0  0  0  0
   -7.4056    2.5942    0.0000 C   0  0  0  0  0  0  0  0  0  0  0  0
    8.0348    4.4751    0.0000 C   0  0  0  0  0  0  0  0  0  0  0  0
  2  8  1  0  0  0  0
  3  2  1  0  0  0  0
  4 31  1  0  0  0  0
  5  1  1  0  0  0  0
  6 18  1  0  0  0  0
  7 19  1  0  0  0  0
  8 38  1  0  0  0  0
 20  9  1  0  0  0  0
 10  6  1  0  0  0  0
 11  7  1  0  0  0  0
 12  1  1  0  0  0  0
 13 10  1  0  0  0  0
 14 11  1  0  0  0  0
 15  9  1  0  0  0  0
 17 16  1  0  0  0  0
 17 12  1  0  0  0  0
  2 18  1  0  0  0  0
  3 19  1  0  0  0  0
 20 37  1  0  0  0  0
 21  5  1  0  0  0  0
 22  6  1  0  0  0  0
 23  8  1  0  0  0  0
 24 28  1  0  0  0  0
 25  7  1  0  0  0  0
 26 29  1  0  0  0  0
 27 33  1  0  0  0  0
 28 23  1  0  0  0  0
 29 22  1  0  0  0  0
 30  5  1  0  0  0  0
 31 12  1  0  0  0  0
  4 32  1  6  0  0  0
 33 25  1  0  0  0  0
 34  1  1  0  0  0  0
 35 36  1  0  0  0  0
 36 21  1  0  0  0  0
 37 34  1  0  0  0  0
 42 38  1  0  0  0  0
 39  9  1  0  0  0  0
 40 15  1  0  0  0  0
 41  4  1  0  0  0  0
 42 52  1  0  0  0  0
 10 43  1  0  0  0  0
 11 44  1  0  0  0  0
 14 45  1  0  0  0  0
 13 46  1  0  0  0  0
 24 47  1  0  0  0  0
 26 48  1  0  0  0  0
 27 49  1  0  0  0  0
  1 50  1  0  0  0  0
 51 32  1  0  0  0  0
 52 39  1  0  0  0  0
  9 53  1  0  0  0  0
 54 41  1  0  0  0  0
 28 55  1  0  0  0  0
 29 56  1  0  0  0  0
 57 54  1  0  0  0  0
 31 58  1  6  0  0  0
 59 56  1  0  0  0  0
 60 55  1  0  0  0  0
 33 61  1  0  0  0  0
 57 62  1  0  0  0  0
 30 17  1  0  0  0  0
 20 21  1  0  0  0  0
 16  4  1  0  0  0  0
 15 35  2  0  0  0  0
 51 57  1  0  0  0  0
 40 42  1  0  0  0  0
 24  3  1  0  0  0  0
 26 13  1  0  0  0  0
 14 27  1  0  0  0  0
M  END
>  <IDNUMBER> (N006-0008)
N006-0008

>  <available> (N006-0008)
39

>  <H_acceptor> (N006-0008)
17

>  <H_donor> (N006-0008)
9

>  <B_rotN> (N006-0008)
17

>  <N_O> (N006-0008)
17

>  <logP> (N006-0008)
0.28

>  <logD> (N006-0008)
-0.23

>  <logSw> (N006-0008)
-5.05

>  <PSA> (N006-0008)
255.91

>  <Chiral_centers> (N006-0008)
26

>  <Name> (N006-0008)
2-{[5-HYDROXY-6-(HYDROXYMETHYL)-2-{5,7',9',13'-TETRAMETHYL-5'-OXASPIRO[OXANE-2,6'-PENTACYCLO[10.8.0.0^(2,9).0^(4,8).0^(13,18)]ICOSAN]-18'-ENEOXY}-4-[(3,4,5-TRIHYDROXY-6-METHYLOXAN-2-YL)OXY]OXAN-3-YL]O
XY}-6-(HYDROXYMETHYL)OXANE-3,4,5-TRIOL

>  <Smile> (N006-0008)
CC1COC2(OC3C(C4(C)CCC5C6(C)C(=CCC5C4C3)CC(OC3C(OC4C(C(O)C(C(O4)CO)O)O)C(C(C(O3)CO)O)OC3C(C(C(C(O3)C)O)O)O)CC6)C2C)CC1

>  <Collection> (N006-0008)
DC

>  <InChI Key> (N006-0008)
DAIAMOGGSOXZSO-DXXRCRNESA-N

>  <PERCENTSP3> (N006-0008)
95.6

$$$$

  -ISIS-  -- StrEd -- 

 65 73  0  0  0  0  0  0  0  0999 V2000
    3.3217    4.0515    0.0000 C   0  0  0  0  0  0  0  0  0  0  0  0
   -5.2012   -1.1570    0.0000 C   0  0  0  0  0  0  0  0  0  0  0  0
    5.3074    5.2239    0.0000 C   0  0  2  0  0  0  0  0  0  0  0  0
   -4.4382   -0.2121    0.0000 C   0  0  0  0  0  0  0  0  0  0  0  0
    3.3217    3.2839    0.0000 C   0  0  0  0  0  0  0  0  0  0  0  0
    1.3465    2.9101    0.0000 C   0  0  0  0  0  0  0  0  0  0  0  0
   -5.1305   -4.3602    0.0000 C   0  0  0  0  0  0  0  0  0  0  0  0
   -0.8360    0.3535    0.0000 C   0  0  0  0  0  0  0  0  0  0  0  0
   -3.7614    0.3535    0.0000 C   0  0  0  0  0  0  0  0  0  0  0  0
   -5.8830   -5.3298    0.0000 C   0  0  0  0  0  0  0  0  0  0  0  0
   -1.6041   -0.5661    0.0000 C   0  0  0  0  0  0  0  0  0  0  0  0
    3.9886    4.4357    0.0000 C   0  0  0  0  0  0  0  0  0  0  0  0
   -3.0336   -0.5661    0.0000 C   0  0  0  0  0  0  0  0  0  0  0  0
   -6.6358   -1.1570    0.0000 C   0  0  0  0  0  0  0  0  0  0  0  0
   -7.3231   -5.3298    0.0000 C   0  0  0  0  0  0  0  0  0  0  0  0
    2.0132    3.2839    0.0000 C   0  0  0  0  0  0  0  0  0  0  0  0
    5.3074    4.4357    0.0000 O   0  0  0  0  0  0  0  0  0  0  0  0
    4.6556    4.0515    0.0000 C   0  0  0  0  0  0  0  0  0  0  0  0
   -5.2012   -2.2029    0.0000 O   0  0  0  0  0  0  0  0  0  0  0  0
    2.6399    2.9101    0.0000 C   0  0  0  0  0  0  0  0  0  0  0  0
   -5.2012    0.7729    0.0000 O   0  0  0  0  0  0  0  0  0  0  0  0
   -5.8830   -3.3901    0.0000 O   0  0  0  0  0  0  0  0  0  0  0  0
   -1.6041    1.3233    0.0000 O   0  0  0  0  0  0  0  0  0  0  0  0
   -3.7969    1.3691    0.0000 O   0  0  0  0  0  0  0  0  0  0  0  0
   -7.3991   -0.2121    0.0000 C   0  0  0  0  0  0  0  0  0  0  0  0
   -8.0507   -4.3602    0.0000 C   0  0  0  0  0  0  0  0  0  0  0  0
   -3.0336    1.3233    0.0000 C   0  0  0  0  0  0  0  0  0  0  0  0
   -7.3231   -3.3901    0.0000 C   0  0  0  0  0  0  0  0  0  0  0  0
   -6.6358    0.7729    0.0000 C   0  0  0  0  0  0  0  0  0  0  0  0
    4.6556    3.2839    0.0000 C   0  0  0  0  0  0  0  0  0  0  0  0
    3.9886    5.2239    0.0000 C   0  0  2  0  0  0  0  0  0  0  0  0
    0.6896    3.2839    0.0000 C   0  0  0  0  0  0  0  0  0  0  0  0
    1.3465    2.1322    0.0000 C   0  0  2  0  0  0  0  0  0  0  0  0
    5.9037    6.2544    0.0000 O   0  0  0  0  0  0  0  0  0  0  0  0
   -0.6692    1.7228    0.0000 O   0  0  0  0  0  0  0  0  0  0  0  0
    2.6399    4.4357    0.0000 C   0  0  0  0  0  0  0  0  0  0  0  0
    0.0126    2.1322    0.0000 C   0  0  0  0  0  0  0  0  0  0  0  0
    2.0132    4.0515    0.0000 C   0  0  0  0  0  0  0  0  0  0  0  0
    0.6896    1.7228    0.0000 C   0  0  0  0  0  0  0  0  0  0  0  0
    0.0126    2.9101    0.0000 C   0  0  2  0  0  0  0  0  0  0  0  0
    2.6399    2.1322    0.0000 C   0  0  0  0  0  0  0  0  0  0  0  0
    6.0146    5.6483    0.0000 C   0  0  0  0  0  0  0  0  0  0  0  0
    2.0132    1.7228    0.0000 C   0  0  0  0  0  0  0  0  0  0  0  0
   -1.6041   -1.5613    0.0000 O   0  0  0  0  0  0  0  0  0  0  0  0
   -5.8830   -6.2544    0.0000 O   0  0  0  0  0  0  0  0  0  0  0  0
   -3.0336    0.2068    0.0000 O   0  0  0  0  0  0  0  0  0  0  0  0
   -6.6358   -0.3132    0.0000 O   0  0  0  0  0  0  0  0  0  0  0  0
   -7.3231   -4.4108    0.0000 O   0  0  0  0  0  0  0  0  0  0  0  0
   -7.3734   -1.1824    0.0000 O   0  0  0  0  0  0  0  0  0  0  0  0
   -8.0507   -5.3809    0.0000 O   0  0  0  0  0  0  0  0  0  0  0  0
    3.2711    5.0317    0.0000 C   0  0  0  0  0  0  0  0  0  0  0  0
    6.5603    5.8302    0.0000 C   0  0  0  0  0  0  0  0  0  0  0  0
    1.3465    3.6726    0.0000 C   0  0  0  0  0  0  0  0  0  0  0  0
   -0.8614    3.4203    0.0000 O   0  0  0  0  0  0  0  0  0  0  0  0
    6.7168    5.2390    0.0000 C   0  0  0  0  0  0  0  0  0  0  0  0
   -3.0336    1.9500    0.0000 C   0  0  0  0  0  0  0  0  0  0  0  0
   -7.3231   -2.7989    0.0000 C   0  0  0  0  0  0  0  0  0  0  0  0
   -6.6358    1.7228    0.0000 C   0  0  0  0  0  0  0  0  0  0  0  0
    7.3234    6.1485    0.0000 C   0  0  0  0  0  0  0  0  0  0  0  0
    3.3471    5.7696    0.0000 C   0  0  0  0  0  0  0  0  0  0  0  0
   -8.0303   -2.4451    0.0000 O   0  0  0  0  0  0  0  0  0  0  0  0
   -2.3063    2.2887    0.0000 O   0  0  0  0  0  0  0  0  0  0  0  0
   -5.8227    2.2180    0.0000 O   0  0  0  0  0  0  0  0  0  0  0  0
    8.0507    5.6028    0.0000 C   0  0  0  0  0  0  0  0  0  0  0  0
    1.3817    1.2378    0.0000 H   0  0  0  0  0  0  0  0  0  0  0  0
  2  4  1  0  0  0  0
  3 31  1  0  0  0  0
  4 24  1  0  0  0  0
  5  1  1  0  0  0  0
 16  6  1  0  0  0  0
  7 19  1  0  0  0  0
  8 35  1  0  0  0  0
  9 27  1  0  0  0  0
 10  7  1  0  0  0  0
 11  8  1  0  0  0  0
 12  1  1  0  0  0  0
 13 11  1  0  0  0  0
 14  2  1  0  0  0  0
 15 10  1  0  0  0  0
 16 38  1  0  0  0  0
 18 17  1  0  0  0  0
 18 12  1  0  0  0  0
  2 19  1  0  0  0  0
 20  5  1  0  0  0  0
 21  4  1  0  0  0  0
 22  7  1  0  0  0  0
 23  8  1  0  0  0  0
  9 24  1  0  0  0  0
 25 29  1  0  0  0  0
 26 28  1  0  0  0  0
 27 23  1  0  0  0  0
 28 22  1  0  0  0  0
 29 21  1  0  0  0  0
 30  5  1  0  0  0  0
 31 12  1  0  0  0  0
 32  6  1  0  0  0  0
 33  6  1  0  0  0  0
  3 34  1  6  0  0  0
 37 35  1  0  0  0  0
 36  1  1  0  0  0  0
 37 39  1  0  0  0  0
 38 36  1  0  0  0  0
 39 33  1  0  0  0  0
 40 32  1  0  0  0  0
 41 20  1  0  0  0  0
 42  3  1  0  0  0  0
 43 41  1  0  0  0  0
 11 44  1  0  0  0  0
 10 45  1  0  0  0  0
 13 46  1  0  0  0  0
 14 47  1  0  0  0  0
 15 48  1  0  0  0  0
 25 49  1  0  0  0  0
 26 50  1  0  0  0  0
  1 51  1  0  0  0  0
 52 34  1  0  0  0  0
  6 53  1  0  0  0  0
 40 54  1  6  0  0  0
 55 42  1  0  0  0  0
 27 56  1  0  0  0  0
 28 57  1  0  0  0  0
 29 58  1  0  0  0  0
 59 55  1  0  0  0  0
 31 60  1  6  0  0  0
 61 57  1  0  0  0  0
 62 56  1  0  0  0  0
 63 58  1  0  0  0  0
 59 64  1  0  0  0  0
 33 65  1  6  0  0  0
 18 30  1  0  0  0  0
 20 16  1  0  0  0  0
  3 17  1  0  0  0  0
 43 33  1  0  0  0  0
 40 37  1  0  0  0  0
 52 59  1  0  0  0  0
  9 13  1  0  0  0  0
 25 14  1  0  0  0  0
 26 15  1  0  0  0  0
M  END
>  <IDNUMBER> (N008-0008)
N008-0008

>  <available> (N008-0008)
129

>  <H_acceptor> (N008-0008)
19

>  <H_donor> (N008-0008)
11

>  <B_rotN> (N008-0008)
20

>  <N_O> (N008-0008)
19

>  <logP> (N008-0008)
-1.32

>  <logD> (N008-0008)
-2.59

>  <logSw> (N008-0008)
-4.28

>  <PSA> (N008-0008)
296.37

>  <Chiral_centers> (N008-0008)
28

>  <Name> (N008-0008)
(2alpha,5alpha)-2-hydroxyspirostan-3-yl hexopyranosyl-(1->2)hexopyranosyl-(1->4)hexopyranoside

>  <Smile> (N008-0008)
CC1COC2(OC3C(C4(C)CCC5C6(C)CC(C(OC7C(C(C(OC8C(OC9C(C(O)C(C(O9)CO)O)O)C(C(C(O8)CO)O)O)C(O7)CO)O)O)CC6CCC5C4C3)O)C2C)CC1

>  <Collection> (N008-0008)
DC

>  <InChI Key> (N008-0008)
CGORMVKERVDQKF-GJTYLUPXSA-N

>  <PERCENTSP3> (N008-0008)
100

$$$$

  -ISIS-  -- StrEd -- 

 24 28  0  0  0  0  0  0  0  0999 V2000
    2.5233    0.9896    0.0000 C   0  0  0  0  0  0  0  0  0  0  0  0
    1.6052    0.6902    0.0000 C   0  0  0  0  0  0  0  0  0  0  0  0
    3.6317    1.0508    0.0000 O   0  0  0  0  0  0  0  0  0  0  0  0
    3.1217    0.2346    0.0000 C   0  0  0  0  0  0  0  0  0  0  0  0
    1.6052   -0.3026    0.0000 C   0  0  0  0  0  0  0  0  0  0  0  0
   -0.9860   -0.7787    0.0000 C   0  0  0  0  0  0  0  0  0  0  0  0
   -0.9860   -1.8396    0.0000 C   0  0  0  0  0  0  0  0  0  0  0  0
   -0.1563   -0.3026    0.0000 C   0  0  0  0  0  0  0  0  0  0  0  0
    0.7278   -0.7787    0.0000 C   0  0  0  0  0  0  0  0  0  0  0  0
    2.5573   -0.5612    0.0000 C   0  0  0  0  0  0  0  0  0  0  0  0
    0.7278    1.2140    0.0000 C   0  0  0  0  0  0  0  0  0  0  0  0
   -0.1563   -2.3088    0.0000 C   0  0  0  0  0  0  0  0  0  0  0  0
    2.5233    1.8872    0.0000 C   0  0  0  0  0  0  0  0  0  0  0  0
    0.7278   -1.8396    0.0000 C   0  0  0  0  0  0  0  0  0  0  0  0
   -0.1563    0.6902    0.0000 C   0  0  0  0  0  0  0  0  0  0  0  0
   -1.8702   -0.3026    0.0000 C   0  0  0  0  0  0  0  0  0  0  0  0
   -1.8702   -2.3088    0.0000 C   0  0  0  0  0  0  0  0  0  0  0  0
    3.4209    2.3225    0.0000 O   0  0  0  0  0  0  0  0  0  0  0  0
    1.6052    1.7240    0.0000 C   0  0  0  0  0  0  0  0  0  0  0  0
   -2.7680   -0.7787    0.0000 C   0  0  0  0  0  0  0  0  0  0  0  0
   -2.7680   -1.8396    0.0000 C   0  0  0  0  0  0  0  0  0  0  0  0
   -0.9860    0.1734    0.0000 C   0  0  0  0  0  0  0  0  0  0  0  0
   -3.6317   -2.3566    0.0000 O   0  0  0  0  0  0  0  0  0  0  0  0
    1.6595    2.3566    0.0000 C   0  0  0  0  0  0  0  0  0  0  0  0
  2  1  1  0  0  0  0
  3  1  1  0  0  0  0
  4  1  1  0  0  0  0
  5  2  1  0  0  0  0
  8  6  1  0  0  0  0
  7  6  1  0  0  0  0
  8 15  1  0  0  0  0
  9  5  1  0  0  0  0
 10  4  1  0  0  0  0
 11  2  1  0  0  0  0
 12 14  1  0  0  0  0
 13  1  1  0  0  0  0
 14  9  1  0  0  0  0
 15 11  1  0  0  0  0
 16  6  1  0  0  0  0
 17  7  1  0  0  0  0
 18 13  2  0  0  0  0
  2 19  1  0  0  0  0
 20 16  1  0  0  0  0
 21 20  1  0  0  0  0
  6 22  1  0  0  0  0
 21 23  1  0  0  0  0
 24 13  1  0  0  0  0
  3  4  1  0  0  0  0
  5 10  1  0  0  0  0
  9  8  1  0  0  0  0
 12  7  2  0  0  0  0
 21 17  1  0  0  0  0
M  END
>  <IDNUMBER> (N017-0007)
N017-0007

>  <available> (N017-0007)
119

>  <H_acceptor> (N017-0007)
3

>  <H_donor> (N017-0007)
1

>  <B_rotN> (N017-0007)
2

>  <N_O> (N017-0007)
3

>  <logP> (N017-0007)
2.55

>  <logD> (N017-0007)
3.58

>  <logSw> (N017-0007)
-6.28

>  <PSA> (N017-0007)
49.83

>  <Chiral_centers> (N017-0007)
8

>  <Name> (N017-0007)
1-(2-hydroxy-4a,6a-dimethyl-1,2,3,4,4a,4b,5,6,6a,7a,8,8a,8b,9-tetradecahydro-6bH-naphtho[2',1':4,5]indeno[1,2-b]oxiren-6-yl)-1-ethanone

>  <Smile> (N017-0007)
CC(C12C(O2)CC2C1(C)CCC1C3(CCC(CC3=CCC12)O)C)=O

>  <Collection> (N017-0007)
DC

>  <InChI Key> (N017-0007)
UQVIXFCYKBWZPJ-UHFFFAOYSA-N

>  <PERCENTSP3> (N017-0007)
85.7

$$$$

  -ISIS-  -- StrEd -- 

 30 34  0  0  0  0  0  0  0  0999 V2000
    1.5842    1.1226    0.0000 C   0  0  0  0  0  0  0  0  0  0  0  0
    1.5842    0.1383    0.0000 C   0  0  0  0  0  0  0  0  0  0  0  0
    2.4942    1.4191    0.0000 C   0  0  0  0  0  0  0  0  0  0  0  0
   -0.9843   -0.3337    0.0000 C   0  0  0  0  0  0  0  0  0  0  0  0
   -0.9843   -1.3855    0.0000 C   0  0  0  0  0  0  0  0  0  0  0  0
   -0.1619    0.1383    0.0000 C   0  0  0  0  0  0  0  0  0  0  0  0
    0.7145   -0.3337    0.0000 C   0  0  0  0  0  0  0  0  0  0  0  0
    3.0876    0.6708    0.0000 C   0  0  0  0  0  0  0  0  0  0  0  0
    2.5280   -0.1180    0.0000 C   0  0  0  0  0  0  0  0  0  0  0  0
    0.7145    1.6416    0.0000 C   0  0  0  0  0  0  0  0  0  0  0  0
   -0.1619   -1.8505    0.0000 C   0  0  0  0  0  0  0  0  0  0  0  0
    0.7145   -1.3855    0.0000 C   0  0  0  0  0  0  0  0  0  0  0  0
   -0.1619    1.1226    0.0000 C   0  0  0  0  0  0  0  0  0  0  0  0
   -1.8607    0.1383    0.0000 C   0  0  0  0  0  0  0  0  0  0  0  0
    1.9888    2.7270    0.0000 C   0  0  0  0  0  0  0  0  0  0  0  0
   -1.8607   -1.8505    0.0000 C   0  0  0  0  0  0  0  0  0  0  0  0
   -3.6069   -2.8686    0.0000 C   0  0  0  0  0  0  0  0  0  0  0  0
   -3.6069   -1.8977    0.0000 O   0  0  0  0  0  0  0  0  0  0  0  0
   -2.7508   -1.3855    0.0000 C   0  0  0  0  0  0  0  0  0  0  0  0
   -2.7842   -3.4551    0.0000 O   0  0  0  0  0  0  0  0  0  0  0  0
    2.5888    3.4551    0.0000 O   0  0  0  0  0  0  0  0  0  0  0  0
    3.8021    2.4709    0.0000 C   0  0  0  0  0  0  0  0  0  0  0  0
    4.4158    1.7224    0.0000 C   0  0  0  0  0  0  0  0  0  0  0  0
    1.5842    2.1470    0.0000 C   0  0  0  0  0  0  0  0  0  0  0  0
    2.8314    2.3361    0.0000 C   0  0  0  0  0  0  0  0  0  0  0  0
   -2.7508   -0.3337    0.0000 C   0  0  0  0  0  0  0  0  0  0  0  0
    4.0787    0.8193    0.0000 C   0  0  0  0  0  0  0  0  0  0  0  0
   -0.9843    0.6101    0.0000 C   0  0  0  0  0  0  0  0  0  0  0  0
   -4.4158   -3.3403    0.0000 C   0  0  0  0  0  0  0  0  0  0  0  0
    0.9909    2.7406    0.0000 C   0  0  0  0  0  0  0  0  0  0  0  0
  2  1  1  0  0  0  0
  3  1  1  0  0  0  0
  6  4  1  0  0  0  0
  5  4  1  0  0  0  0
  6 13  1  0  0  0  0
  7  2  1  0  0  0  0
  8  3  1  0  0  0  0
  9  2  1  0  0  0  0
 10  1  1  0  0  0  0
 11 12  1  0  0  0  0
 12  7  1  0  0  0  0
 13 10  1  0  0  0  0
 14  4  1  0  0  0  0
  3 15  1  0  0  0  0
 16  5  1  0  0  0  0
 17 18  1  0  0  0  0
 19 18  1  0  0  0  0
 19 26  1  0  0  0  0
 20 17  2  0  0  0  0
 21 15  2  0  0  0  0
 22 25  1  0  0  0  0
 23 22  2  0  0  0  0
  1 24  1  0  0  0  0
 25  3  1  0  0  0  0
 26 14  1  0  0  0  0
 27  8  1  0  0  0  0
  4 28  1  0  0  0  0
 29 17  1  0  0  0  0
 30 15  1  0  0  0  0
  9  8  1  0  0  0  0
  6  7  1  0  0  0  0
 23 27  1  0  0  0  0
  5 11  2  0  0  0  0
 16 19  1  0  0  0  0
M  END
>  <IDNUMBER> (N017-0016)
N017-0016

>  <available> (N017-0016)
142

>  <H_acceptor> (N017-0016)
3

>  <H_donor> (N017-0016)
0

>  <B_rotN> (N017-0016)
3

>  <N_O> (N017-0016)
3

>  <logP> (N017-0016)
4.63

>  <logD> (N017-0016)
6.75

>  <logSw> (N017-0016)
-8.39

>  <PSA> (N017-0016)
43.37

>  <Chiral_centers> (N017-0016)
8

>  <Name> (N017-0016)
6b-acetyl-4a,6a-dimethyl-1H,2H,3H,4H,4aH,4bH,5H,6H,6aH,6bH,7H,10H,10aH,11H,11aH,11bH,12H-indeno[2,1-a]phenanthren-2-yl acetate

>  <Smile> (N017-0016)
CC(C12C3(C)CCC4C5(C)C(=CCC4C3CC2CC=CC1)CC(OC(=O)C)CC5)=O

>  <Collection> (N017-0016)
DC

>  <InChI Key> (N017-0016)
XGZQDBRFMPJPBO-UHFFFAOYSA-N

>  <PERCENTSP3> (N017-0016)
77.8

$$$$

  -ISIS-  -- StrEd -- 

 27 31  0  0  0  0  0  0  0  0999 V2000
    1.1767    0.3431    0.0000 C   0  0  0  0  0  0  0  0  0  0  0  0
    1.1767   -0.6387    0.0000 C   0  0  0  0  0  0  0  0  0  0  0  0
    2.0844    0.6387    0.0000 C   0  0  0  0  0  0  0  0  0  0  0  0
   -1.3851   -1.1093    0.0000 C   0  0  0  0  0  0  0  0  0  0  0  0
   -1.3851   -2.1583    0.0000 C   0  0  0  0  0  0  0  0  0  0  0  0
   -0.5647   -0.6387    0.0000 C   0  0  0  0  0  0  0  0  0  0  0  0
    0.3094   -1.1093    0.0000 C   0  0  0  0  0  0  0  0  0  0  0  0
    2.6761   -0.1076    0.0000 C   0  0  0  0  0  0  0  0  0  0  0  0
    2.1180   -0.8943    0.0000 C   0  0  0  0  0  0  0  0  0  0  0  0
    0.3094    0.8607    0.0000 C   0  0  0  0  0  0  0  0  0  0  0  0
   -0.5647   -2.6222    0.0000 C   0  0  0  0  0  0  0  0  0  0  0  0
    0.3094   -2.1583    0.0000 C   0  0  0  0  0  0  0  0  0  0  0  0
   -0.5647    0.3431    0.0000 C   0  0  0  0  0  0  0  0  0  0  0  0
   -2.2592   -0.6387    0.0000 C   0  0  0  0  0  0  0  0  0  0  0  0
    1.5802    1.9432    0.0000 C   0  0  0  0  0  0  0  0  0  0  0  0
   -2.2592   -2.6222    0.0000 C   0  0  0  0  0  0  0  0  0  0  0  0
    2.1786    2.6694    0.0000 O   0  0  0  0  0  0  0  0  0  0  0  0
    1.1767    1.3647    0.0000 C   0  0  0  0  0  0  0  0  0  0  0  0
   -3.1467   -1.1093    0.0000 C   0  0  0  0  0  0  0  0  0  0  0  0
   -3.1467   -2.1583    0.0000 C   0  0  0  0  0  0  0  0  0  0  0  0
    2.4206    1.5533    0.0000 C   0  0  0  0  0  0  0  0  0  0  0  0
   -1.3851   -0.1682    0.0000 C   0  0  0  0  0  0  0  0  0  0  0  0
    3.6645    0.0404    0.0000 C   0  0  0  0  0  0  0  0  0  0  0  0
   -4.0007   -2.6694    0.0000 O   0  0  0  0  0  0  0  0  0  0  0  0
    0.5850    1.9567    0.0000 C   0  0  0  0  0  0  0  0  0  0  0  0
    3.3887    1.6877    0.0000 C   0  0  0  0  0  0  0  0  0  0  0  0
    4.0007    0.9413    0.0000 C   0  0  0  0  0  0  0  0  0  0  0  0
  2  1  1  0  0  0  0
  3  1  1  0  0  0  0
  6  4  1  0  0  0  0
  5  4  1  0  0  0  0
  6 13  1  0  0  0  0
  7  2  1  0  0  0  0
  8  3  1  0  0  0  0
  9  2  1  0  0  0  0
 10  1  1  0  0  0  0
 11 12  1  0  0  0  0
 12  7  1  0  0  0  0
 13 10  1  0  0  0  0
 14  4  1  0  0  0  0
  3 15  1  0  0  0  0
 16  5  1  0  0  0  0
 17 15  2  0  0  0  0
  1 18  1  0  0  0  0
 19 14  1  0  0  0  0
 20 19  1  0  0  0  0
 21  3  1  0  0  0  0
  4 22  1  0  0  0  0
 23  8  1  0  0  0  0
 20 24  1  0  0  0  0
 25 15  1  0  0  0  0
 26 21  1  0  0  0  0
 27 26  1  0  0  0  0
  8  9  1  0  0  0  0
  7  6  1  0  0  0  0
 23 27  1  0  0  0  0
 11  5  2  0  0  0  0
 20 16  1  0  0  0  0
M  END
>  <IDNUMBER> (N017-0020)
N017-0020

>  <available> (N017-0020)
21

>  <H_acceptor> (N017-0020)
2

>  <H_donor> (N017-0020)
1

>  <B_rotN> (N017-0020)
2

>  <N_O> (N017-0020)
2

>  <logP> (N017-0020)
4.69

>  <logD> (N017-0020)
5.85

>  <logSw> (N017-0020)
-5.96

>  <PSA> (N017-0020)
37.3

>  <Chiral_centers> (N017-0020)
8

>  <Name> (N017-0020)
1-{2-hydroxy-4a,6a-dimethyl-1H,2H,3H,4H,4aH,4bH,5H,6H,6aH,6bH,7H,8H,9H,10H,10aH,11H,11aH,11bH,12H-indeno[2,1-a]phenanthren-6b-yl}ethan-1-one

>  <Smile> (N017-0020)
C1CC2C(C3(C)CCC4C5(C)C(=CCC4C3C2)CC(CC5)O)(C(=O)C)CC1

>  <Collection> (N017-0020)
DC

>  <InChI Key> (N017-0020)
NTISSUBFZAIVDS-UHFFFAOYSA-N

>  <PERCENTSP3> (N017-0020)
88

$$$$

  -ISIS-  -- StrEd -- 

 34 38  0  0  0  0  0  0  0  0999 V2000
    1.1367   -0.7415    0.0000 C   0  0  0  0  0  0  0  0  0  0  0  0
   -1.4763   -1.2602    0.0000 C   0  0  0  0  0  0  0  0  0  0  0  0
    1.1367    0.2965    0.0000 C   0  0  0  0  0  0  0  0  0  0  0  0
   -1.4763   -2.2670    0.0000 C   0  0  0  0  0  0  0  0  0  0  0  0
   -0.6176   -0.7415    0.0000 C   0  0  2  0  0  0  0  0  0  0  0  0
    0.2595   -1.2602    0.0000 C   0  0  1  0  0  0  0  0  0  0  0  0
    2.3043    1.5010    0.0000 C   0  0  0  0  0  0  0  0  0  0  0  0
    2.0386    0.5499    0.0000 C   0  0  0  0  0  0  0  0  0  0  0  0
    3.2557    1.8531    0.0000 C   0  0  0  0  0  0  0  0  0  0  0  0
    3.2557    2.7427    0.0000 C   0  0  0  0  0  0  0  0  0  0  0  0
    2.0694   -1.0810    0.0000 C   0  0  0  0  0  0  0  0  0  0  0  0
    0.2287    0.7597    0.0000 C   0  0  0  0  0  0  0  0  0  0  0  0
   -2.3351   -0.7415    0.0000 C   0  0  0  0  0  0  0  0  0  0  0  0
   -0.6176    0.2533    0.0000 C   0  0  0  0  0  0  0  0  0  0  0  0
   -2.3351   -2.7737    0.0000 C   0  0  0  0  0  0  0  0  0  0  0  0
    2.2920    3.1320    0.0000 O   0  0  0  0  0  0  0  0  0  0  0  0
    2.6317   -0.2533    0.0000 C   0  0  0  0  0  0  0  0  0  0  0  0
    0.2595   -2.2670    0.0000 C   0  0  0  0  0  0  0  0  0  0  0  0
   -0.6176   -2.7737    0.0000 C   0  0  0  0  0  0  0  0  0  0  0  0
    1.5937    2.4029    0.0000 C   0  0  0  0  0  0  0  0  0  0  0  0
   -1.4763   -0.2656    0.0000 C   0  0  0  0  0  0  0  0  0  0  0  0
   -2.3351    0.2223    0.0000 N   0  0  0  0  0  0  0  0  0  0  0  0
    4.1142    3.2184    0.0000 O   0  0  0  0  0  0  0  0  0  0  0  0
    1.1367   -1.7481    0.0000 O   0  0  0  0  0  0  0  0  0  0  0  0
   -1.4763   -3.2184    0.0000 O   0  0  0  0  0  0  0  0  0  0  0  0
   -3.2246   -2.2670    0.0000 C   0  0  1  0  0  0  0  0  0  0  0  0
    1.1367    1.2601    0.0000 C   0  0  0  0  0  0  0  0  0  0  0  0
   -3.2246   -1.2602    0.0000 C   0  0  0  0  0  0  0  0  0  0  0  0
   -4.1142   -2.7737    0.0000 O   0  0  0  0  0  0  0  0  0  0  0  0
   -4.0523    1.2170    0.0000 O   0  0  0  0  0  0  0  0  0  0  0  0
   -2.3351    1.2170    0.0000 C   0  0  0  0  0  0  0  0  0  0  0  0
   -3.1936    1.7049    0.0000 C   0  0  0  0  0  0  0  0  0  0  0  0
    0.2595   -0.2965    0.0000 H   0  0  0  0  0  0  0  0  0  0  0  0
   -0.6176   -1.7174    0.0000 H   0  0  0  0  0  0  0  0  0  0  0  0
  2  5  1  0  0  0  0
  3  1  1  0  0  0  0
  4 19  1  0  0  0  0
  5  6  1  0  0  0  0
  6  1  1  0  0  0  0
  8  7  1  0  0  0  0
  8  3  1  0  0  0  0
  9  7  2  0  0  0  0
 10  9  1  0  0  0  0
 11  1  1  0  0  0  0
 12  3  1  0  0  0  0
 13  2  1  0  0  0  0
 14  5  1  0  0  0  0
 15  4  1  0  0  0  0
 16 20  1  0  0  0  0
 17 11  1  0  0  0  0
 18  6  1  0  0  0  0
 19 18  1  0  0  0  0
 20  7  1  0  0  0  0
  2 21  1  0  0  0  0
 22 21  2  0  0  0  0
 23 10  2  0  0  0  0
  1 24  1  0  0  0  0
  4 25  1  0  0  0  0
 26 15  1  0  0  0  0
  3 27  1  0  0  0  0
 28 13  1  0  0  0  0
 26 29  1  6  0  0  0
 30 32  1  0  0  0  0
 31 22  1  0  0  0  0
 32 31  1  0  0  0  0
  6 33  1  1  0  0  0
  5 34  1  6  0  0  0
  8 17  1  0  0  0  0
 12 14  1  0  0  0  0
  4  2  1  0  0  0  0
 28 26  1  0  0  0  0
 16 10  1  0  0  0  0
M  END
>  <IDNUMBER> (N023-0007)
N023-0007

>  <available> (N023-0007)
87

>  <H_acceptor> (N023-0007)
7

>  <H_donor> (N023-0007)
4

>  <B_rotN> (N023-0007)
8

>  <N_O> (N023-0007)
7

>  <logP> (N023-0007)
0.95

>  <logD> (N023-0007)
0.77

>  <logSw> (N023-0007)
0.33

>  <PSA> (N023-0007)
119.58

>  <Chiral_centers> (N023-0007)
8

>  <Name> (N023-0007)
4-{3a,5a,7-trihydroxy-9a-[(E)-[(2-hydroxyethyl)imino]methyl]-11a-methyl-hexadecahydro-1H-cyclopenta[a]phenanthren-1-yl}-2,5-dihydrofuran-2-one

>  <Smile> (N023-0007)
C(O)CN=CC12C3C(C4(O)CCC(C4(C)CC3)C3=CC(=O)OC3)CCC1(O)CC(CC2)O

>  <Collection> (N023-0007)
DC

>  <InChI Key> (N023-0007)
ADHLLVLYTWRLEA-BFDZXAJUSA-N

>  <PERCENTSP3> (N023-0007)
84

$$$$

  -ISIS-  -- StrEd -- 

 27 31  0  0  0  0  0  0  0  0999 V2000
    2.9448    1.3707    0.0000 C   0  0  2  0  0  0  0  0  0  0  0  0
    2.3373    2.1282    0.0000 C   0  0  1  0  0  0  0  0  0  0  0  0
    3.3117    2.3570    0.0000 O   0  0  0  0  0  0  0  0  0  0  0  0
    1.4102    1.8483    0.0000 C   0  0  0  0  0  0  0  0  0  0  0  0
    1.4102    0.8224    0.0000 C   0  0  0  0  0  0  0  0  0  0  0  0
   -1.2129    0.3217    0.0000 C   0  0  0  0  0  0  0  0  0  0  0  0
    2.3650    0.5306    0.0000 C   0  0  0  0  0  0  0  0  0  0  0  0
   -1.2129   -0.6923    0.0000 C   0  0  0  0  0  0  0  0  0  0  0  0
   -0.3333    0.8343    0.0000 C   0  0  0  0  0  0  0  0  0  0  0  0
    0.5386    0.3217    0.0000 C   0  0  0  0  0  0  0  0  0  0  0  0
    3.5957    0.6331    0.0000 C   0  0  0  0  0  0  0  0  0  0  0  0
   -0.3333   -1.1932    0.0000 C   0  0  0  0  0  0  0  0  0  0  0  0
    0.5386    2.3490    0.0000 C   0  0  0  0  0  0  0  0  0  0  0  0
    0.5386   -0.6923    0.0000 C   0  0  0  0  0  0  0  0  0  0  0  0
   -0.3333    1.8483    0.0000 C   0  0  0  0  0  0  0  0  0  0  0  0
   -2.0846    0.8343    0.0000 C   0  0  0  0  0  0  0  0  0  0  0  0
   -2.0846   -1.1932    0.0000 C   0  0  0  0  0  0  0  0  0  0  0  0
   -3.8165   -2.1794    0.0000 C   0  0  0  0  0  0  0  0  0  0  0  0
   -3.8165   -1.1853    0.0000 O   0  0  0  0  0  0  0  0  0  0  0  0
   -2.9525   -0.6923    0.0000 C   0  0  0  0  0  0  0  0  0  0  0  0
    4.6490    0.7199    0.0000 O   0  0  0  0  0  0  0  0  0  0  0  0
   -2.9723   -2.8028    0.0000 O   0  0  0  0  0  0  0  0  0  0  0  0
   -2.9525    0.3217    0.0000 C   0  0  0  0  0  0  0  0  0  0  0  0
    1.4182    2.8028    0.0000 C   0  0  0  0  0  0  0  0  0  0  0  0
   -1.2129    1.2010    0.0000 C   0  0  0  0  0  0  0  0  0  0  0  0
    3.2841   -0.2663    0.0000 C   0  0  0  0  0  0  0  0  0  0  0  0
   -4.6490   -2.6411    0.0000 C   0  0  0  0  0  0  0  0  0  0  0  0
  2  1  1  0  0  0  0
  1  3  1  6  0  0  0
  4  2  1  0  0  0  0
  5  7  1  0  0  0  0
  9  6  1  0  0  0  0
  7  1  1  0  0  0  0
  8 12  2  0  0  0  0
 10  9  1  0  0  0  0
 10  5  1  0  0  0  0
 11  1  1  0  0  0  0
 12 14  1  0  0  0  0
 13  4  1  0  0  0  0
 14 10  1  0  0  0  0
 15 13  1  0  0  0  0
 16  6  1  0  0  0  0
 17  8  1  0  0  0  0
 18 19  1  0  0  0  0
 20 19  1  0  0  0  0
 20 17  1  0  0  0  0
 21 11  2  0  0  0  0
 22 18  2  0  0  0  0
 23 16  1  0  0  0  0
  4 24  1  0  0  0  0
  6 25  1  0  0  0  0
 26 11  1  0  0  0  0
 27 18  1  0  0  0  0
  2  3  1  6  0  0  0
  5  4  1  0  0  0  0
  9 15  1  0  0  0  0
  8  6  1  0  0  0  0
 20 23  1  0  0  0  0
M  END
>  <IDNUMBER> (N038-0225)
N038-0225

>  <available> (N038-0225)
83

>  <H_acceptor> (N038-0225)
4

>  <H_donor> (N038-0225)
0

>  <B_rotN> (N038-0225)
3

>  <N_O> (N038-0225)
4

>  <logP> (N038-0225)
2.93

>  <logD> (N038-0225)
4.48

>  <logSw> (N038-0225)
-5.3

>  <PSA> (N038-0225)
55.9

>  <Chiral_centers> (N038-0225)
8

>  <Name> (N038-0225)
(6bS,7aR)-7a-acetyl-4a,6a-dimethyl-2,3,4,4a,4b,5,6,6a,6b,7a,8,8a,8b,9-tetradecahydro-1H-naphtho[2',1':4,5]indeno[1,2-b]oxiren-2-yl acetate

>  <Smile> (N038-0225)
CC(OC1CC2C(C3C(C4C(C5C(C(=O)C)(C4)O5)(C)CC3)CC=2)(C)CC1)=O

>  <Collection> (N038-0225)
DC

>  <InChI Key> (N038-0225)
GWZAVXCYXHGFFE-LXNHEZRPSA-N

>  <PERCENTSP3> (N038-0225)
82.6

$$$$

  -ISIS-  -- StrEd -- 

 33 38  0  0  0  0  0  0  0  0999 V2000
   -0.2602    1.0330    0.0000 C   0  0  0  0  0  0  0  0  0  0  0  0
    2.3003    1.8986    0.0000 C   0  0  2  0  0  0  0  0  0  0  0  0
   -0.2602    0.1058    0.0000 C   0  0  0  0  0  0  0  0  0  0  0  0
   -2.6714   -0.3789    0.0000 C   0  0  0  0  0  0  0  0  0  0  0  0
    0.6309    1.3059    0.0000 C   0  0  0  0  0  0  0  0  0  0  0  0
    2.3263    0.8322    0.0000 O   0  0  0  0  0  0  0  0  0  0  0  0
    1.1515    0.5642    0.0000 C   0  0  0  0  0  0  0  0  0  0  0  0
   -1.8521    0.1058    0.0000 C   0  0  0  0  0  0  0  0  0  0  0  0
   -1.0483   -0.3789    0.0000 C   0  0  0  0  0  0  0  0  0  0  0  0
    0.6309   -0.1520    0.0000 C   0  0  0  0  0  0  0  0  0  0  0  0
    1.2752    2.3058    0.0000 C   0  0  2  0  0  0  0  0  0  0  0  0
    3.0064    2.7899    0.0000 O   0  0  0  0  0  0  0  0  0  0  0  0
   -2.6714   -1.2906    0.0000 C   0  0  0  0  0  0  0  0  0  0  0  0
   -1.0483    1.5020    0.0000 C   0  0  0  0  0  0  0  0  0  0  0  0
   -1.8521    1.0330    0.0000 C   0  0  0  0  0  0  0  0  0  0  0  0
   -3.5115    0.1058    0.0000 C   0  0  0  0  0  0  0  0  0  0  0  0
   -1.0483   -1.2906    0.0000 C   0  0  0  0  0  0  0  0  0  0  0  0
   -5.0570   -2.7899    0.0000 C   0  0  0  0  0  0  0  0  0  0  0  0
    3.1404    2.2953    0.0000 C   0  0  0  0  0  0  0  0  0  0  0  0
   -3.5115   -1.7646    0.0000 C   0  0  0  0  0  0  0  0  0  0  0  0
   -1.8521   -1.7646    0.0000 C   0  0  0  0  0  0  0  0  0  0  0  0
   -5.0673   -1.7852    0.0000 O   0  0  0  0  0  0  0  0  0  0  0  0
   -4.2532   -1.2906    0.0000 C   0  0  0  0  0  0  0  0  0  0  0  0
   -4.2016   -3.4081    0.0000 O   0  0  0  0  0  0  0  0  0  0  0  0
   -0.2346    2.1201    0.0000 C   0  0  0  0  0  0  0  0  0  0  0  0
    4.1553    2.3675    0.0000 C   0  0  0  0  0  0  0  0  0  0  0  0
   -4.2532   -0.3789    0.0000 C   0  0  0  0  0  0  0  0  0  0  0  0
   -2.6972    0.7599    0.0000 C   0  0  0  0  0  0  0  0  0  0  0  0
    4.3048    1.8833    0.0000 C   0  0  0  0  0  0  0  0  0  0  0  0
    5.0209    2.7899    0.0000 C   0  0  0  0  0  0  0  0  0  0  0  0
    0.9660    3.4081    0.0000 C   0  0  0  0  0  0  0  0  0  0  0  0
   -5.8967   -3.2587    0.0000 C   0  0  0  0  0  0  0  0  0  0  0  0
    5.8967    2.3931    0.0000 C   0  0  0  0  0  0  0  0  0  0  0  0
  2 11  1  0  0  0  0
  3  1  1  0  0  0  0
  8  4  1  0  0  0  0
  5  1  1  0  0  0  0
  7  6  1  0  0  0  0
  7  5  1  0  0  0  0
  8 15  1  0  0  0  0
  9  3  1  0  0  0  0
 10  3  1  0  0  0  0
 11  5  1  0  0  0  0
  2 12  1  6  0  0  0
 13  4  1  0  0  0  0
 14  1  1  0  0  0  0
 15 14  1  0  0  0  0
 16  4  1  0  0  0  0
 17  9  1  0  0  0  0
 18 22  1  0  0  0  0
 19  2  1  0  0  0  0
 20 13  1  0  0  0  0
 21 17  1  0  0  0  0
 23 22  1  0  0  0  0
 23 27  1  0  0  0  0
 24 18  2  0  0  0  0
  1 25  1  0  0  0  0
 26 12  1  0  0  0  0
 27 16  1  0  0  0  0
  4 28  1  0  0  0  0
 29 19  1  0  0  0  0
 30 29  1  0  0  0  0
 11 31  1  6  0  0  0
 32 18  1  0  0  0  0
 30 33  1  0  0  0  0
  7 10  1  0  0  0  0
  9  8  1  0  0  0  0
  2  6  1  0  0  0  0
 21 13  1  0  0  0  0
 30 26  1  0  0  0  0
 23 20  1  0  0  0  0
M  END
>  <IDNUMBER> (N039-0023)
N039-0023

>  <available> (N039-0023)
342

>  <H_acceptor> (N039-0023)
4

>  <H_donor> (N039-0023)
0

>  <B_rotN> (N039-0023)
2

>  <N_O> (N039-0023)
4

>  <logP> (N039-0023)
5.26

>  <logD> (N039-0023)
5.4

>  <logSw> (N039-0023)
-9.91

>  <PSA> (N039-0023)
44.76

>  <Chiral_centers> (N039-0023)
12

>  <Name> (N039-0023)
5,7',9',13'-TETRAMETHYL-5'-OXASPIRO[OXANE-2,6'-PENTACYCLO[10.8.0.0^(2,9).0^(4,8).0^(13,18)]ICOSAN]-16'-YL ACETATE

>  <Smile> (N039-0023)
CC1COC2(OC3C(C4(C)CCC5C6(C)C(CCC5C4C3)CC(OC(=O)C)CC6)C2C)CC1

>  <Collection> (N039-0023)
DC

>  <InChI Key> (N039-0023)
LVRAKYNQYKVPIK-NQUJENBJSA-N

>  <PERCENTSP3> (N039-0023)
96.6

$$$$

  -ISIS-  -- StrEd -- 

 36 41  0  0  0  0  0  0  0  0999 V2000
   -2.6441   -1.2775    0.0000 C   0  0  1  0  0  0  0  0  0  0  0  0
   -0.2575    1.0225    0.0000 C   0  0  0  0  0  0  0  0  0  0  0  0
   -2.6441   -0.3748    0.0000 C   0  0  0  0  0  0  0  0  0  0  0  0
   -1.8334   -1.7466    0.0000 C   0  0  0  0  0  0  0  0  0  0  0  0
   -0.2575    0.1045    0.0000 C   0  0  0  0  0  0  0  0  0  0  0  0
   -1.0376   -0.3748    0.0000 C   0  0  0  0  0  0  0  0  0  0  0  0
    2.2770    1.8792    0.0000 C   0  0  2  0  0  0  0  0  0  0  0  0
   -1.8334    0.1045    0.0000 C   0  0  0  0  0  0  0  0  0  0  0  0
   -1.0376   -1.2775    0.0000 C   0  0  2  0  0  0  0  0  0  0  0  0
    0.6247    1.2928    0.0000 C   0  0  0  0  0  0  0  0  0  0  0  0
    2.3027    0.8237    0.0000 O   0  0  0  0  0  0  0  0  0  0  0  0
    1.1399    0.5585    0.0000 C   0  0  0  0  0  0  0  0  0  0  0  0
    0.6247   -0.1505    0.0000 C   0  0  0  0  0  0  0  0  0  0  0  0
    1.2621    2.2823    0.0000 C   0  0  2  0  0  0  0  0  0  0  0  0
    2.9757    2.7614    0.0000 O   0  0  0  0  0  0  0  0  0  0  0  0
   -1.0376    1.4867    0.0000 C   0  0  0  0  0  0  0  0  0  0  0  0
   -3.4755   -1.7466    0.0000 C   0  0  0  0  0  0  0  0  0  0  0  0
   -1.8334    1.0225    0.0000 C   0  0  0  0  0  0  0  0  0  0  0  0
   -3.4755    0.1045    0.0000 C   0  0  0  0  0  0  0  0  0  0  0  0
   -1.8128   -2.9297    0.0000 O   0  0  0  0  0  0  0  0  0  0  0  0
   -5.0053   -2.7614    0.0000 C   0  0  0  0  0  0  0  0  0  0  0  0
    3.1081    2.2719    0.0000 C   0  0  0  0  0  0  0  0  0  0  0  0
   -2.6441   -2.4913    0.0000 O   0  0  0  0  0  0  0  0  0  0  0  0
   -4.2098   -1.2775    0.0000 C   0  0  0  0  0  0  0  0  0  0  0  0
   -5.0156   -1.7668    0.0000 O   0  0  0  0  0  0  0  0  0  0  0  0
   -0.1707   -1.7568    0.0000 Br  0  0  0  0  0  0  0  0  0  0  0  0
   -4.1587   -3.3733    0.0000 O   0  0  0  0  0  0  0  0  0  0  0  0
   -0.2322    2.0986    0.0000 C   0  0  0  0  0  0  0  0  0  0  0  0
    4.1129    2.3434    0.0000 C   0  0  0  0  0  0  0  0  0  0  0  0
   -4.2098   -0.3748    0.0000 C   0  0  0  0  0  0  0  0  0  0  0  0
   -2.6695    0.7522    0.0000 C   0  0  0  0  0  0  0  0  0  0  0  0
    4.2608    1.8640    0.0000 C   0  0  0  0  0  0  0  0  0  0  0  0
    4.9696    2.7614    0.0000 C   0  0  0  0  0  0  0  0  0  0  0  0
    0.9561    3.3733    0.0000 C   0  0  0  0  0  0  0  0  0  0  0  0
   -5.8365   -3.2254    0.0000 C   0  0  0  0  0  0  0  0  0  0  0  0
    5.8365    2.3687    0.0000 C   0  0  0  0  0  0  0  0  0  0  0  0
  5  2  1  0  0  0  0
  3  1  1  0  0  0  0
  4  1  1  0  0  0  0
  6  5  1  0  0  0  0
  6  9  1  0  0  0  0
  7 11  1  0  0  0  0
  8  3  1  0  0  0  0
  9  4  1  0  0  0  0
 10  2  1  0  0  0  0
 12 11  1  0  0  0  0
 12 13  1  0  0  0  0
 13  5  1  0  0  0  0
 14 10  1  0  0  0  0
  7 15  1  6  0  0  0
 16 18  1  0  0  0  0
 17  1  1  0  0  0  0
 18  8  1  0  0  0  0
 19  3  1  0  0  0  0
 20  4  2  0  0  0  0
 21 25  1  0  0  0  0
 22  7  1  0  0  0  0
  1 23  1  6  0  0  0
 24 17  1  0  0  0  0
 24 25  1  0  0  0  0
  9 26  1  6  0  0  0
 27 21  2  0  0  0  0
  2 28  1  0  0  0  0
 29 15  1  0  0  0  0
 30 24  1  0  0  0  0
  3 31  1  0  0  0  0
 32 22  1  0  0  0  0
 33 32  1  0  0  0  0
 14 34  1  6  0  0  0
 35 21  1  0  0  0  0
 33 36  1  0  0  0  0
  8  6  1  0  0  0  0
 30 19  1  0  0  0  0
 16  2  1  0  0  0  0
 12 10  1  0  0  0  0
  7 14  1  0  0  0  0
 29 33  1  0  0  0  0
M  END
>  <IDNUMBER> (N039-0029)
N039-0029

>  <available> (N039-0029)
180

>  <H_acceptor> (N039-0029)
7

>  <H_donor> (N039-0029)
1

>  <B_rotN> (N039-0029)
3

>  <N_O> (N039-0029)
6

>  <logP> (N039-0029)
3.68

>  <logD> (N039-0029)
4.82

>  <logSw> (N039-0029)
-7.56

>  <PSA> (N039-0029)
82.06

>  <Chiral_centers> (N039-0029)
13

>  <Name> (N039-0029)
20'-BROMO-18'-HYDROXY-5,7',9',13'-TETRAMETHYL-19'-OXO-5'-OXASPIRO[OXANE-2,6'-PENTACYCLO[10.8.0.0^(2,9).0^(4,8).0^(13,18)]ICOSAN]-16'-YL ACETATE

>  <Smile> (N039-0029)
CC1COC2(C(C3C4(CCC5C6(C(CC(OC(=O)C)CC6)(C(C(C5C4CC3O2)Br)=O)O)C)C)C)CC1

>  <Collection> (N039-0029)
DC

>  <InChI Key> (N039-0029)
NZMXPNPAWOZZDY-JUOAJREBSA-N

>  <PERCENTSP3> (N039-0029)
93.1

$$$$

  -ISIS-  -- StrEd -- 

 62 70  0  0  0  0  0  0  0  0999 V2000
    0.7819    2.5084    0.0000 C   0  0  0  0  0  0  0  0  0  0  0  0
    0.0830    2.0589    0.0000 C   0  0  0  0  0  0  0  0  0  0  0  0
    2.1245    2.5084    0.0000 C   0  0  2  0  0  0  0  0  0  0  0  0
    2.1245    3.2697    0.0000 C   0  0  0  0  0  0  0  0  0  0  0  0
    1.4602    2.0589    0.0000 C   0  0  0  0  0  0  0  0  0  0  0  0
    0.0830    3.0206    0.0000 C   0  0  0  0  0  0  0  0  0  0  0  0
   -3.5847   -1.3808    0.0000 C   0  0  0  0  0  0  0  0  0  0  0  0
    0.0830    1.3113    0.0000 C   0  0  0  0  0  0  0  0  0  0  0  0
    2.8721    3.5052    0.0000 C   0  0  0  0  0  0  0  0  0  0  0  0
    3.2735    4.3701    0.0000 C   0  0  2  0  0  0  0  0  0  0  0  0
   -4.3321   -4.7371    0.0000 C   0  0  0  0  0  0  0  0  0  0  0  0
    0.0208   -3.1871    0.0000 C   0  0  0  0  0  0  0  0  0  0  0  0
   -3.5847   -3.7061    0.0000 C   0  0  0  0  0  0  0  0  0  0  0  0
   -2.9552   -0.5849    0.0000 C   0  0  0  0  0  0  0  0  0  0  0  0
    0.7819   -2.1905    0.0000 C   0  0  0  0  0  0  0  0  0  0  0  0
   -3.5847   -2.3564    0.0000 O   0  0  0  0  0  0  0  0  0  0  0  0
    0.7819    0.8963    0.0000 C   0  0  2  0  0  0  0  0  0  0  0  0
   -0.6299    0.8963    0.0000 C   0  0  2  0  0  0  0  0  0  0  0  0
    4.1037    4.0520    0.0000 O   0  0  0  0  0  0  0  0  0  0  0  0
   -4.8306   -1.3808    0.0000 C   0  0  0  0  0  0  0  0  0  0  0  0
    2.8721    2.2595    0.0000 C   0  0  0  0  0  0  0  0  0  0  0  0
    3.3079    2.8892    0.0000 C   0  0  0  0  0  0  0  0  0  0  0  0
   -1.3426   -3.1871    0.0000 C   0  0  0  0  0  0  0  0  0  0  0  0
   -5.8271   -4.7371    0.0000 C   0  0  0  0  0  0  0  0  0  0  0  0
    1.4602    1.3113    0.0000 C   0  0  0  0  0  0  0  0  0  0  0  0
    0.7819    3.2697    0.0000 C   0  0  0  0  0  0  0  0  0  0  0  0
    0.7819   -0.8342    0.0000 O   0  0  0  0  0  0  0  0  0  0  0  0
   -1.2457    1.3113    0.0000 C   0  0  0  0  0  0  0  0  0  0  0  0
   -4.4153   -2.7096    0.0000 O   0  0  0  0  0  0  0  0  0  0  0  0
   -3.5847    0.3150    0.0000 O   0  0  0  0  0  0  0  0  0  0  0  0
    0.0208   -1.2285    0.0000 O   0  0  0  0  0  0  0  0  0  0  0  0
   -2.9552    0.4808    0.0000 O   0  0  0  0  0  0  0  0  0  0  0  0
   -0.6299    2.5084    0.0000 C   0  0  0  0  0  0  0  0  0  0  0  0
    1.4602    3.6850    0.0000 C   0  0  0  0  0  0  0  0  0  0  0  0
    4.6161    4.7994    0.0000 C   0  0  0  0  0  0  0  0  0  0  0  0
   -5.5155   -0.5849    0.0000 C   0  0  0  0  0  0  0  0  0  0  0  0
   -6.6090   -3.7406    0.0000 C   0  0  0  0  0  0  0  0  0  0  0  0
   -2.1106   -2.1905    0.0000 C   0  0  0  0  0  0  0  0  0  0  0  0
    5.6955    4.7994    0.0000 C   0  0  0  0  0  0  0  0  0  0  0  0
    3.2735    5.2005    0.0000 C   0  0  0  0  0  0  0  0  0  0  0  0
   -4.8306    0.3150    0.0000 C   0  0  0  0  0  0  0  0  0  0  0  0
   -5.8616   -2.7096    0.0000 C   0  0  0  0  0  0  0  0  0  0  0  0
   -1.3426   -1.2285    0.0000 C   0  0  0  0  0  0  0  0  0  0  0  0
   -1.2457    2.0589    0.0000 C   0  0  0  0  0  0  0  0  0  0  0  0
    4.1037    5.4638    0.0000 C   0  0  0  0  0  0  0  0  0  0  0  0
   -4.3321   -5.6644    0.0000 O   0  0  0  0  0  0  0  0  0  0  0  0
    0.0208   -4.0173    0.0000 O   0  0  0  0  0  0  0  0  0  0  0  0
    2.1245    1.7404    0.0000 C   0  0  0  0  0  0  0  0  0  0  0  0
    2.1245    4.1834    0.0000 C   0  0  0  0  0  0  0  0  0  0  0  0
   -4.8306   -0.6332    0.0000 O   0  0  0  0  0  0  0  0  0  0  0  0
   -5.8271   -3.7682    0.0000 O   0  0  0  0  0  0  0  0  0  0  0  0
   -1.3426   -2.2250    0.0000 O   0  0  0  0  0  0  0  0  0  0  0  0
    4.1384    2.8892    0.0000 O   0  0  0  0  0  0  0  0  0  0  0  0
    2.6230    4.7994    0.0000 C   0  0  0  0  0  0  0  0  0  0  0  0
    6.6437    4.7994    0.0000 O   0  0  0  0  0  0  0  0  0  0  0  0
   -5.5155   -1.5812    0.0000 O   0  0  0  0  0  0  0  0  0  0  0  0
   -6.6437   -2.6747    0.0000 O   0  0  0  0  0  0  0  0  0  0  0  0
   -2.1245   -3.3739    0.0000 O   0  0  0  0  0  0  0  0  0  0  0  0
   -1.0588    0.2178    0.0000 C   0  0  0  0  0  0  0  0  0  0  0  0
   -0.3114    0.2317    0.0000 C   0  0  0  0  0  0  0  0  0  0  0  0
    5.6955    3.8994    0.0000 C   0  0  0  0  0  0  0  0  0  0  0  0
    5.6955    5.6644    0.0000 C   0  0  0  0  0  0  0  0  0  0  0  0
  2  1  1  0  0  0  0
  5  3  1  0  0  0  0
  4 34  1  0  0  0  0
  5  1  1  0  0  0  0
  1  6  1  0  0  0  0
  7 14  1  0  0  0  0
  8  2  1  0  0  0  0
  9  4  1  0  0  0  0
  9 10  1  0  0  0  0
 11 13  1  0  0  0  0
 12 15  1  0  0  0  0
 13 16  1  0  0  0  0
 14 32  1  0  0  0  0
 15 27  1  0  0  0  0
  7 16  1  0  0  0  0
 17 25  1  0  0  0  0
 18  8  1  0  0  0  0
 10 19  1  6  0  0  0
 20  7  1  0  0  0  0
 21  3  1  0  0  0  0
 22 21  1  0  0  0  0
 23 12  1  0  0  0  0
 24 11  1  0  0  0  0
 25  5  1  0  0  0  0
 26  1  1  0  0  0  0
 17 27  1  6  0  0  0
 28 44  1  0  0  0  0
 29 13  1  0  0  0  0
 30 14  1  0  0  0  0
 31 15  1  0  0  0  0
 28 32  1  0  0  0  0
 33  2  1  0  0  0  0
 34 26  1  0  0  0  0
 35 19  1  0  0  0  0
 36 41  1  0  0  0  0
 37 42  1  0  0  0  0
 38 43  1  0  0  0  0
 39 35  1  0  0  0  0
 40 10  1  0  0  0  0
 41 30  1  0  0  0  0
 42 29  1  0  0  0  0
 43 31  1  0  0  0  0
 44 33  1  0  0  0  0
 45 40  1  0  0  0  0
 11 46  1  0  0  0  0
 12 47  1  0  0  0  0
  3 48  1  6  0  0  0
  4 49  1  0  0  0  0
 20 50  1  0  0  0  0
 24 51  1  0  0  0  0
 23 52  1  0  0  0  0
 22 53  1  0  0  0  0
 10 54  1  6  0  0  0
 55 39  1  0  0  0  0
 36 56  1  0  0  0  0
 37 57  1  0  0  0  0
 38 58  1  0  0  0  0
 59 18  1  0  0  0  0
 18 60  1  6  0  0  0
 61 39  1  0  0  0  0
 62 39  1  0  0  0  0
  2  6  1  0  0  0  0
  4  3  1  0  0  0  0
  8 17  1  0  0  0  0
  9 22  1  0  0  0  0
 28 18  1  0  0  0  0
 45 35  1  0  0  0  0
 38 23  1  0  0  0  0
 20 36  1  0  0  0  0
 37 24  1  0  0  0  0
M  END
>  <IDNUMBER> (N039-0038)
N039-0038

>  <available> (N039-0038)
187

>  <H_acceptor> (N039-0038)
17

>  <H_donor> (N039-0038)
10

>  <B_rotN> (N039-0038)
18

>  <N_O> (N039-0038)
17

>  <logP> (N039-0038)
-1.07

>  <logD> (N039-0038)
0.15

>  <logSw> (N039-0038)
-5.08

>  <PSA> (N039-0038)
266.91

>  <Chiral_centers> (N039-0038)
24

>  <Name> (N039-0038)
2-{[4,5-DIHYDROXY-2-({14-HYDROXY-15-[5-(2-HYDROXYPROPAN-2-YL)-2-METHYLOXOLAN-2-YL]-7,7,12,16-TETRAMETHYL-9-[(3,4,5-TRIHYDROXYOXAN-2-YL)OXY]PENTACYCLO[9.7.0.0^(1,3).0^(3,8).0^(12,16)]OCTADECAN-6-YL}OXY
)OXAN-3-YL]OXY}OXANE-3,4,5-TRIOL

>  <Smile> (N039-0038)
CC(C1OC(C2C3(C(C)(CC2O)C2C4(CC3)CC34C(C(C2)OC2C(O)C(C(CO2)O)O)C(C)(C)C(CC3)OC2C(OC3C(O)C(C(CO3)O)O)C(C(CO2)O)O)C)(C)CC1)(C)O

>  <Collection> (N039-0038)
DC

>  <InChI Key> (N039-0038)
NAUZBQMEOYSERD-RLNTWMIJSA-N

>  <PERCENTSP3> (N039-0038)
100

$$$$

  -ISIS-  -- StrEd -- 

 24 28  0  0  0  0  0  0  0  0999 V2000
    2.5511    0.5062    0.0000 C   0  0  2  0  0  0  0  0  0  0  0  0
    1.9638    1.3217    0.0000 C   0  0  1  0  0  0  0  0  0  0  0  0
    2.9856    1.3967    0.0000 O   0  0  0  0  0  0  0  0  0  0  0  0
    1.0264    1.0154    0.0000 C   0  0  0  0  0  0  0  0  0  0  0  0
    1.0264    0.0033    0.0000 C   0  0  0  0  0  0  0  0  0  0  0  0
   -1.5825   -0.5062    0.0000 C   0  0  0  0  0  0  0  0  0  0  0  0
    1.9638   -0.3061    0.0000 C   0  0  0  0  0  0  0  0  0  0  0  0
   -1.5825   -1.4965    0.0000 C   0  0  0  0  0  0  0  0  0  0  0  0
   -0.7202    0.0033    0.0000 C   0  0  0  0  0  0  0  0  0  0  0  0
    0.1422   -0.5062    0.0000 C   0  0  0  0  0  0  0  0  0  0  0  0
    3.1792   -0.2593    0.0000 C   0  0  0  0  0  0  0  0  0  0  0  0
   -0.7202   -2.0059    0.0000 C   0  0  0  0  0  0  0  0  0  0  0  0
    0.1422    1.4935    0.0000 C   0  0  0  0  0  0  0  0  0  0  0  0
    0.1422   -1.4965    0.0000 C   0  0  0  0  0  0  0  0  0  0  0  0
   -0.7202    1.0154    0.0000 C   0  0  0  0  0  0  0  0  0  0  0  0
   -2.4449    0.0033    0.0000 C   0  0  0  0  0  0  0  0  0  0  0  0
   -2.4449   -2.0059    0.0000 C   0  0  0  0  0  0  0  0  0  0  0  0
    2.8949   -1.2123    0.0000 O   0  0  0  0  0  0  0  0  0  0  0  0
    1.0264    2.0059    0.0000 C   0  0  0  0  0  0  0  0  0  0  0  0
   -3.3072   -0.5062    0.0000 C   0  0  0  0  0  0  0  0  0  0  0  0
   -3.3072   -1.4965    0.0000 C   0  0  0  0  0  0  0  0  0  0  0  0
   -1.5825    0.5062    0.0000 C   0  0  0  0  0  0  0  0  0  0  0  0
   -4.1697   -2.0059    0.0000 O   0  0  0  0  0  0  0  0  0  0  0  0
    4.1697   -0.1624    0.0000 C   0  0  0  0  0  0  0  0  0  0  0  0
  2  1  1  0  0  0  0
  1  3  1  6  0  0  0
  4  2  1  0  0  0  0
  5  7  1  0  0  0  0
  9  6  1  0  0  0  0
  7  1  1  0  0  0  0
  8 12  2  0  0  0  0
 10  9  1  0  0  0  0
 10  5  1  0  0  0  0
 11  1  1  0  0  0  0
 12 14  1  0  0  0  0
 13  4  1  0  0  0  0
 14 10  1  0  0  0  0
 15 13  1  0  0  0  0
 16  6  1  0  0  0  0
 17  8  1  0  0  0  0
 18 11  2  0  0  0  0
  4 19  1  0  0  0  0
 20 16  1  0  0  0  0
 21 17  1  0  0  0  0
  6 22  1  0  0  0  0
 21 23  1  0  0  0  0
 24 11  1  0  0  0  0
  2  3  1  6  0  0  0
  4  5  1  0  0  0  0
 15  9  1  0  0  0  0
  8  6  1  0  0  0  0
 21 20  1  0  0  0  0
M  END
>  <IDNUMBER> (N039-0054)
N039-0054

>  <available> (N039-0054)
277

>  <H_acceptor> (N039-0054)
3

>  <H_donor> (N039-0054)
1

>  <B_rotN> (N039-0054)
2

>  <N_O> (N039-0054)
3

>  <logP> (N039-0054)
2.55

>  <logD> (N039-0054)
3.58

>  <logSw> (N039-0054)
-6.28

>  <PSA> (N039-0054)
49.83

>  <Chiral_centers> (N039-0054)
8

>  <Name> (N039-0054)
1-{14-HYDROXY-7,11-DIMETHYL-5-OXAPENTACYCLO[8.8.0.0^(2,7).0^(4,6).0^(11,16)]OCTADEC-16-EN-4-YL}ETHAN-1-ONE

>  <Smile> (N039-0054)
CC(C12CC3C(C2O1)(C)CCC1C2(C)CCC(CC2=CCC13)O)=O

>  <Collection> (N039-0054)
DC

>  <InChI Key> (N039-0054)
AEJAEAUKXCTTKY-SAQJRPSSSA-N

>  <PERCENTSP3> (N039-0054)
85.7

$$$$

  -ISIS-  -- StrEd -- 

 33 36  0  0  0  0  0  0  0  0999 V2000
    0.2948    1.0009    0.0000 C   0  0  0  0  0  0  0  0  0  0  0  0
   -2.3437   -0.5440    0.0000 C   0  0  0  0  0  0  0  0  0  0  0  0
   -2.3437   -1.5632    0.0000 C   0  0  0  0  0  0  0  0  0  0  0  0
    0.2948   -0.0452    0.0000 C   0  0  0  0  0  0  0  0  0  0  0  0
   -1.4785   -0.0343    0.0000 C   0  0  0  0  0  0  0  0  0  0  0  0
   -0.5865   -0.5440    0.0000 C   0  0  0  0  0  0  0  0  0  0  0  0
    1.2343    1.2820    0.0000 C   0  0  0  0  0  0  0  0  0  0  0  0
   -1.4785   -2.0729    0.0000 C   0  0  0  0  0  0  0  0  0  0  0  0
   -0.5865    1.4839    0.0000 C   0  0  0  0  0  0  0  0  0  0  0  0
   -0.5865   -1.5632    0.0000 C   0  0  0  0  0  0  0  0  0  0  0  0
   -1.4785    1.0009    0.0000 C   0  0  0  0  0  0  0  0  0  0  0  0
    1.2607   -0.3371    0.0000 C   0  0  0  0  0  0  0  0  0  0  0  0
   -3.2250   -0.0343    0.0000 C   0  0  0  0  0  0  0  0  0  0  0  0
    1.8342    0.5017    0.0000 C   0  0  0  0  0  0  0  0  0  0  0  0
   -3.2250   -2.0729    0.0000 C   0  0  0  0  0  0  0  0  0  0  0  0
   -4.9556   -3.0657    0.0000 C   0  0  0  0  0  0  0  0  0  0  0  0
   -4.9556   -2.0729    0.0000 O   0  0  0  0  0  0  0  0  0  0  0  0
   -4.0903   -1.5632    0.0000 C   0  0  0  0  0  0  0  0  0  0  0  0
   -5.7837   -3.6231    0.0000 O   0  0  0  0  0  0  0  0  0  0  0  0
    1.5262    2.2376    0.0000 C   0  0  0  0  0  0  0  0  0  0  0  0
    2.4978    2.4660    0.0000 C   0  0  0  0  0  0  0  0  0  0  0  0
    3.1718    1.7385    0.0000 C   0  0  0  0  0  0  0  0  0  0  0  0
   -4.0903   -0.5440    0.0000 C   0  0  0  0  0  0  0  0  0  0  0  0
    0.2948    1.9563    0.0000 C   0  0  0  0  0  0  0  0  0  0  0  0
    4.1381    1.9668    0.0000 C   0  0  0  0  0  0  0  0  0  0  0  0
   -2.3437    0.3373    0.0000 C   0  0  0  0  0  0  0  0  0  0  0  0
    4.8281    1.2556    0.0000 C   0  0  0  0  0  0  0  0  0  0  0  0
   -4.1274   -3.6231    0.0000 C   0  0  0  0  0  0  0  0  0  0  0  0
    4.4195    2.9119    0.0000 C   0  0  0  0  0  0  0  0  0  0  0  0
    0.8520    2.9596    0.0000 C   0  0  0  0  0  0  0  0  0  0  0  0
    4.5626    0.3000    0.0000 C   0  0  0  0  0  0  0  0  0  0  0  0
    5.7837    1.4839    0.0000 C   0  0  0  0  0  0  0  0  0  0  0  0
    3.7451    3.6231    0.0000 C   0  0  0  0  0  0  0  0  0  0  0  0
  5  2  1  0  0  0  0
  3  2  1  0  0  0  0
  4  1  1  0  0  0  0
  5 11  1  0  0  0  0
  6  4  1  0  0  0  0
  7  1  1  0  0  0  0
  8 10  1  0  0  0  0
  9  1  1  0  0  0  0
 10  6  1  0  0  0  0
 11  9  1  0  0  0  0
 12  4  1  0  0  0  0
 13  2  1  0  0  0  0
 14  7  1  0  0  0  0
 15  3  1  0  0  0  0
 16 17  1  0  0  0  0
 18 17  1  0  0  0  0
 18 23  1  0  0  0  0
 19 16  2  0  0  0  0
 20  7  1  0  0  0  0
 21 20  1  0  0  0  0
 22 21  1  0  0  0  0
 23 13  1  0  0  0  0
  1 24  1  0  0  0  0
 25 22  1  0  0  0  0
  2 26  1  0  0  0  0
 27 25  1  0  0  0  0
 28 16  1  0  0  0  0
 29 25  1  0  0  0  0
 30 20  1  0  0  0  0
 31 27  1  0  0  0  0
 32 27  1  0  0  0  0
 33 29  1  0  0  0  0
 14 12  1  0  0  0  0
  6  5  1  0  0  0  0
  8  3  2  0  0  0  0
 18 15  1  0  0  0  0
M  END
>  <IDNUMBER> (N050-0025)
N050-0025

>  <available> (N050-0025)
101

>  <H_acceptor> (N050-0025)
2

>  <H_donor> (N050-0025)
0

>  <B_rotN> (N050-0025)
8

>  <N_O> (N050-0025)
2

>  <logP> (N050-0025)
8.46

>  <logD> (N050-0025)
9.11

>  <logSw> (N050-0025)
-7.89

>  <PSA> (N050-0025)
26.3

>  <Chiral_centers> (N050-0025)
9

>  <Name> (N050-0025)
1-(5-ethyl-6-methylheptan-2-yl)-9a,11a-dimethyl-1H,2H,3H,3aH,3bH,4H,6H,7H,8H,9H,9aH,9bH,10H,11H,11aH-cyclopenta[a]phenanthren-7-yl acetate

>  <Smile> (N050-0025)
CCC(CCC(C1C2(C)CCC3C4(C)C(=CCC3C2CC1)CC(OC(=O)C)CC4)C)C(C)C

>  <Collection> (N050-0025)
DC

>  <InChI Key> (N050-0025)
PBWOIPCULUXTNY-UHFFFAOYSA-N

>  <PERCENTSP3> (N050-0025)
90.3

$$$$

  -ISIS-  -- StrEd -- 

 31 35  0  0  0  0  0  0  0  0999 V2000
    1.0639   -0.1887    0.0000 C   0  0  0  0  0  0  0  0  0  0  0  0
    2.0546    0.1382    0.0000 C   0  0  1  0  0  0  0  0  0  0  0  0
   -1.5818   -1.6976    0.0000 C   0  0  0  0  0  0  0  0  0  0  0  0
    0.2038   -1.6976    0.0000 C   0  0  0  0  0  0  0  0  0  0  0  0
    1.0639   -1.1997    0.0000 C   0  0  0  0  0  0  0  0  0  0  0  0
   -0.7118   -1.1997    0.0000 C   0  0  0  0  0  0  0  0  0  0  0  0
   -1.5818   -2.7236    0.0000 C   0  0  0  0  0  0  0  0  0  0  0  0
    3.0204   -0.0176    0.0000 O   0  0  0  0  0  0  0  0  0  0  0  0
    3.6691    0.7772    0.0000 C   0  0  0  0  0  0  0  0  0  0  0  0
    0.1684    0.3344    0.0000 C   0  0  0  0  0  0  0  0  0  0  0  0
   -0.7118   -0.1887    0.0000 C   0  0  0  0  0  0  0  0  0  0  0  0
   -2.4619   -1.1997    0.0000 C   0  0  0  0  0  0  0  0  0  0  0  0
    1.6774    1.1038    0.0000 C   0  0  0  0  0  0  0  0  0  0  0  0
   -2.4619   -3.2265    0.0000 C   0  0  0  0  0  0  0  0  0  0  0  0
    2.6079   -0.6563    0.0000 C   0  0  0  0  0  0  0  0  0  0  0  0
    3.3221    1.7428    0.0000 O   0  0  0  0  0  0  0  0  0  0  0  0
    2.0295   -1.5014    0.0000 C   0  0  0  0  0  0  0  0  0  0  0  0
    0.2038   -2.7236    0.0000 C   0  0  0  0  0  0  0  0  0  0  0  0
   -3.3572   -1.6976    0.0000 C   0  0  0  0  0  0  0  0  0  0  0  0
   -3.3572   -2.7236    0.0000 C   0  0  0  0  0  0  0  0  0  0  0  0
   -0.7118   -3.2265    0.0000 C   0  0  0  0  0  0  0  0  0  0  0  0
    2.2962    1.8634    0.0000 C   0  0  0  0  0  0  0  0  0  0  0  0
    0.7017    1.2498    0.0000 O   0  0  0  0  0  0  0  0  0  0  0  0
   -4.2374   -3.2516    0.0000 O   0  0  0  0  0  0  0  0  0  0  0  0
    1.0488    0.5154    0.0000 C   0  0  0  0  0  0  0  0  0  0  0  0
    4.1520    1.5264    0.0000 O   0  0  0  0  0  0  0  0  0  0  0  0
   -1.5918    0.3093    0.0000 O   0  0  0  0  0  0  0  0  0  0  0  0
   -1.5818   -0.6816    0.0000 C   0  0  0  0  0  0  0  0  0  0  0  0
    3.9962   -0.0881    0.0000 C   0  0  0  0  0  0  0  0  0  0  0  0
    3.7043    2.4217    0.0000 C   0  0  0  0  0  0  0  0  0  0  0  0
    4.2374    3.2516    0.0000 C   0  0  0  0  0  0  0  0  0  0  0  0
  2  1  1  0  0  0  0
  6  3  1  0  0  0  0
  5  4  1  0  0  0  0
  5  1  1  0  0  0  0
  6 11  1  0  0  0  0
  7  3  1  0  0  0  0
  2  8  1  6  0  0  0
  9  8  1  0  0  0  0
 10  1  1  0  0  0  0
 11 10  1  0  0  0  0
 12  3  1  0  0  0  0
 13  2  1  0  0  0  0
 14  7  2  0  0  0  0
 15  2  1  0  0  0  0
 16 22  1  0  0  0  0
 17  5  1  0  0  0  0
 18  4  1  0  0  0  0
 19 12  2  0  0  0  0
 20 19  1  0  0  0  0
 21 18  1  0  0  0  0
 22 13  1  0  0  0  0
 23 13  2  0  0  0  0
 24 20  2  0  0  0  0
  1 25  1  0  0  0  0
  9 26  1  0  0  0  0
 11 27  1  0  0  0  0
  3 28  1  0  0  0  0
 29  9  1  0  0  0  0
 30 26  1  0  0  0  0
 31 30  1  0  0  0  0
 15 17  1  0  0  0  0
  6  4  1  0  0  0  0
  7 21  1  0  0  0  0
  9 16  1  0  0  0  0
 14 20  1  0  0  0  0
M  END
>  <IDNUMBER> (N056-0013)
N056-0013

>  <available> (N056-0013)
73

>  <H_acceptor> (N056-0013)
6

>  <H_donor> (N056-0013)
1

>  <B_rotN> (N056-0013)
3

>  <N_O> (N056-0013)
6

>  <logP> (N056-0013)
2.81

>  <logD> (N056-0013)
2.06

>  <logSw> (N056-0013)
-5.41

>  <PSA> (N056-0013)
82.06

>  <Chiral_centers> (N056-0013)
8

>  <Name> (N056-0013)
6'-ethoxy-10-hydroxy-6',9a,11a-trimethyl-2,3,3a,3b,4,5,7,9a,9b,10,11,11a-dodecahydrospiro[cyclopenta[a]phenanthrene-1,2'-[1,5]dioxane]-3',7-dione

>  <Smile> (N056-0013)
CCOC1(OC2(C3(C)CC(C4C5(C)C(CCC4C3CC2)=CC(C=C5)=O)O)C(CO1)=O)C

>  <Collection> (N056-0013)
DC

>  <InChI Key> (N056-0013)
NJHZLTMLCXGLPG-BZMRRLSBSA-N

>  <PERCENTSP3> (N056-0013)
76

$$$$

  -ISIS-  -- StrEd -- 

 37 41  0  0  0  0  0  0  0  0999 V2000
    1.5849   -0.2941    0.0000 C   0  0  1  0  0  0  0  0  0  0  0  0
   -0.9314   -1.7943    0.0000 C   0  0  1  0  0  0  0  0  0  0  0  0
   -0.9314   -2.7301    0.0000 C   0  0  0  0  0  0  0  0  0  0  0  0
    1.5849   -1.3006    0.0000 C   0  0  0  0  0  0  0  0  0  0  0  0
   -0.0848   -1.3006    0.0000 C   0  0  0  0  0  0  0  0  0  0  0  0
    0.7619   -1.7943    0.0000 C   0  0  0  0  0  0  0  0  0  0  0  0
   -3.6075   -2.2129    0.0000 C   0  0  0  0  0  0  0  0  0  0  0  0
   -4.2376   -1.3569    0.0000 O   0  0  0  0  0  0  0  0  0  0  0  0
    2.5022   -0.0023    0.0000 C   0  0  0  0  0  0  0  0  0  0  0  0
   -4.2376   -3.0265    0.0000 C   0  0  0  0  0  0  0  0  0  0  0  0
   -6.1706   -2.2129    0.0000 C   0  0  0  0  0  0  0  0  0  0  0  0
   -0.0848   -3.2289    0.0000 C   0  0  0  0  0  0  0  0  0  0  0  0
   -5.5122   -3.0265    0.0000 C   0  0  0  0  0  0  0  0  0  0  0  0
   -5.5122   -1.3569    0.0000 C   0  0  0  0  0  0  0  0  0  0  0  0
    0.7148    0.1670    0.0000 C   0  0  0  0  0  0  0  0  0  0  0  0
    0.7619   -2.7301    0.0000 C   0  0  0  0  0  0  0  0  0  0  0  0
   -0.0848   -0.3176    0.0000 C   0  0  0  0  0  0  0  0  0  0  0  0
    2.5211   -1.5827    0.0000 C   0  0  0  0  0  0  0  0  0  0  0  0
   -1.7684   -1.3006    0.0000 C   0  0  0  0  0  0  0  0  0  0  0  0
    3.0995   -0.7549    0.0000 C   0  0  0  0  0  0  0  0  0  0  0  0
   -1.7684   -3.2382    0.0000 C   0  0  0  0  0  0  0  0  0  0  0  0
   -3.6075   -3.2382    0.0000 O   0  0  0  0  0  0  0  0  0  0  0  0
   -2.6150   -2.7301    0.0000 C   0  0  2  0  0  0  0  0  0  0  0  0
    2.7700    0.9240    0.0000 C   0  0  0  0  0  0  0  0  0  0  0  0
   -2.6150   -1.7943    0.0000 C   0  0  0  0  0  0  0  0  0  0  0  0
   -6.1706   -1.0511    0.0000 O   0  0  0  0  0  0  0  0  0  0  0  0
    1.5756    0.6419    0.0000 C   0  0  0  0  0  0  0  0  0  0  0  0
   -5.5122   -3.9154    0.0000 O   0  0  0  0  0  0  0  0  0  0  0  0
   -0.9314   -0.8114    0.0000 C   0  0  0  0  0  0  0  0  0  0  0  0
   -5.5122   -2.3022    0.0000 C   0  0  0  0  0  0  0  0  0  0  0  0
    3.9883    2.0531    0.0000 C   0  0  0  0  0  0  0  0  0  0  0  0
    3.7062    1.1263    0.0000 C   0  0  0  0  0  0  0  0  0  0  0  0
    2.1163    1.6391    0.0000 C   0  0  0  0  0  0  0  0  0  0  0  0
    4.9384    2.2692    0.0000 C   0  0  0  0  0  0  0  0  0  0  0  0
    5.2205    3.1960    0.0000 C   0  0  0  0  0  0  0  0  0  0  0  0
    6.1706    3.3980    0.0000 C   0  0  0  0  0  0  0  0  0  0  0  0
    4.5668    3.9154    0.0000 C   0  0  0  0  0  0  0  0  0  0  0  0
  5  2  1  0  0  0  0
  3  2  1  0  0  0  0
  4  1  1  0  0  0  0
  5 17  1  0  0  0  0
  6  4  1  0  0  0  0
  7 22  1  0  0  0  0
  8  7  1  0  0  0  0
  9  1  1  0  0  0  0
 10  7  1  0  0  0  0
 11 13  1  0  0  0  0
 12 16  1  0  0  0  0
 13 10  1  0  0  0  0
 14  8  1  0  0  0  0
 15  1  1  0  0  0  0
 16  6  1  0  0  0  0
 17 15  1  0  0  0  0
 18  4  1  0  0  0  0
 19  2  1  0  0  0  0
 20  9  1  0  0  0  0
 21  3  1  0  0  0  0
 23 22  1  6  0  0  0
 23 25  1  0  0  0  0
 24  9  1  0  0  0  0
 25 19  1  0  0  0  0
 11 26  1  0  0  0  0
  1 27  1  1  0  0  0
 13 28  1  0  0  0  0
  2 29  1  1  0  0  0
 14 30  1  0  0  0  0
 31 32  1  0  0  0  0
 32 24  1  0  0  0  0
 33 24  1  0  0  0  0
 34 31  1  0  0  0  0
 35 34  1  0  0  0  0
 36 35  1  0  0  0  0
 37 35  1  0  0  0  0
 20 18  1  0  0  0  0
  5  6  1  0  0  0  0
 12  3  2  0  0  0  0
 23 21  1  0  0  0  0
 14 11  1  0  0  0  0
M  END
>  <IDNUMBER> (N064-0006)
N064-0006

>  <available> (N064-0006)
10

>  <H_acceptor> (N064-0006)
4

>  <H_donor> (N064-0006)
2

>  <B_rotN> (N064-0006)
9

>  <N_O> (N064-0006)
4

>  <logP> (N064-0006)
7.28

>  <logD> (N064-0006)
5.7

>  <logSw> (N064-0006)
-7.45

>  <PSA> (N064-0006)
58.92

>  <Chiral_centers> (N064-0006)
12

>  <Name> (N064-0006)
6-{[9a,11a-dimethyl-1-(6-methylheptan-2-yl)-1H,2H,3H,3aH,3bH,4H,6H,7H,8H,9H,9aH,9bH,10H,11H,11aH-cyclopenta[a]phenanthren-7-yl]oxy}-2-methyloxane-3,4-diol

>  <Smile> (N064-0006)
CC(CCCC(C1C2(CCC3C4(C)C(=CCC3C2CC1)CC(OC1OC(C(O)C(C1)O)C)CC4)C)C)C

>  <Collection> (N064-0006)
DC

>  <InChI Key> (N064-0006)
ZYEFDXSBYZKQEH-FHZAMDLQSA-N

>  <PERCENTSP3> (N064-0006)
93.9

$$$$

  -ISIS-  -- StrEd -- 

 45 50  0  0  0  0  0  0  0  0999 V2000
   -0.4722   -1.1954    0.0000 C   0  0  2  0  0  0  0  0  0  0  0  0
    2.1135   -0.6933    0.0000 C   0  0  1  0  0  0  0  0  0  0  0  0
    1.2668   -1.1954    0.0000 C   0  0  1  0  0  0  0  0  0  0  0  0
    3.8597    0.3485    0.0000 C   0  0  0  0  0  0  0  0  0  0  0  0
   -2.2035   -1.1954    0.0000 C   0  0  0  0  0  0  0  0  0  0  0  0
    2.9753    0.8579    0.0000 C   0  0  0  0  0  0  0  0  0  0  0  0
    2.1135    0.3485    0.0000 C   0  0  0  0  0  0  0  0  0  0  0  0
    0.4047   -0.6933    0.0000 C   0  0  0  0  0  0  0  0  0  0  0  0
   -0.4722   -2.1472    0.0000 C   0  0  0  0  0  0  0  0  0  0  0  0
   -1.3415   -2.6869    0.0000 C   0  0  1  0  0  0  0  0  0  0  0  0
   -2.2035   -2.1472    0.0000 C   0  0  0  0  0  0  0  0  0  0  0  0
   -1.3415   -0.6933    0.0000 C   0  0  0  0  0  0  0  0  0  0  0  0
   -3.0652   -0.7457    0.0000 C   0  0  0  0  0  0  0  0  0  0  0  0
    3.2152    1.8623    0.0000 C   0  0  1  0  0  0  0  0  0  0  0  0
    4.7591   -0.1911    0.0000 C   0  0  0  0  0  0  0  0  0  0  0  0
   -3.0652    0.2436    0.0000 C   0  0  0  0  0  0  0  0  0  0  0  0
    2.9753   -1.1430    0.0000 C   0  0  0  0  0  0  0  0  0  0  0  0
    1.2668   -2.1472    0.0000 C   0  0  0  0  0  0  0  0  0  0  0  0
    3.8597   -0.6557    0.0000 C   0  0  0  0  0  0  0  0  0  0  0  0
    4.6168    1.0380    0.0000 C   0  0  0  0  0  0  0  0  0  0  0  0
    1.2366    0.8356    0.0000 C   0  0  0  0  0  0  0  0  0  0  0  0
    0.4047   -2.6494    0.0000 C   0  0  0  0  0  0  0  0  0  0  0  0
    0.4047    0.3185    0.0000 C   0  0  0  0  0  0  0  0  0  0  0  0
   -3.9123    0.7307    0.0000 C   0  0  0  0  0  0  0  0  0  0  0  0
    4.2045    1.9524    0.0000 C   0  0  0  0  0  0  0  0  0  0  0  0
    2.5632    2.5967    0.0000 C   0  0  0  0  0  0  0  0  0  0  0  0
   -3.2300   -2.6869    0.0000 O   0  0  0  0  0  0  0  0  0  0  0  0
    4.7742   -1.1804    0.0000 O   0  0  0  0  0  0  0  0  0  0  0  0
   -3.9123    1.7350    0.0000 C   0  0  0  0  0  0  0  0  0  0  0  0
    2.9080    3.5337    0.0000 C   0  0  0  0  0  0  0  0  0  0  0  0
   -0.4722   -0.1911    0.0000 C   0  0  0  0  0  0  0  0  0  0  0  0
    2.1135   -1.6450    0.0000 C   0  0  0  0  0  0  0  0  0  0  0  0
    1.2668   -0.2960    0.0000 C   0  0  0  0  0  0  0  0  0  0  0  0
    5.6210    0.2960    0.0000 O   0  0  0  0  0  0  0  0  0  0  0  0
   -0.8168   -3.5337    0.0000 C   0  0  0  0  0  0  0  0  0  0  0  0
   -2.2934   -3.3015    0.0000 C   0  0  0  0  0  0  0  0  0  0  0  0
   -4.7591    0.2060    0.0000 O   0  0  0  0  0  0  0  0  0  0  0  0
   -4.7742    2.2222    0.0000 O   0  0  0  0  0  0  0  0  0  0  0  0
   -2.2035    0.7457    0.0000 C   0  0  0  0  0  0  0  0  0  0  0  0
   -2.2035    1.7575    0.0000 C   0  0  0  0  0  0  0  0  0  0  0  0
    1.5964    2.4395    0.0000 C   0  0  0  0  0  0  0  0  0  0  0  0
   -3.0278    2.2372    0.0000 C   0  0  0  0  0  0  0  0  0  0  0  0
    5.6210    1.2851    0.0000 C   0  0  0  0  0  0  0  0  0  0  0  0
   -4.7366   -0.7833    0.0000 C   0  0  0  0  0  0  0  0  0  0  0  0
   -5.6210    1.7200    0.0000 C   0  0  0  0  0  0  0  0  0  0  0  0
  2  3  1  0  0  0  0
  8  3  1  0  0  0  0
  6  4  1  0  0  0  0
  5 12  1  0  0  0  0
  7  6  1  0  0  0  0
  7 21  1  0  0  0  0
  8  1  1  0  0  0  0
  9  1  1  0  0  0  0
 10  9  1  0  0  0  0
 11  5  1  0  0  0  0
 12  1  1  0  0  0  0
 13  5  2  0  0  0  0
 14  6  1  0  0  0  0
  4 15  1  0  0  0  0
 16 13  1  0  0  0  0
 17  2  1  0  0  0  0
 18 22  1  0  0  0  0
 19 17  1  0  0  0  0
 20  4  1  0  0  0  0
 21 23  1  0  0  0  0
 22  9  1  0  0  0  0
 23  8  1  0  0  0  0
 24 16  1  0  0  0  0
 25 14  1  0  0  0  0
 14 26  1  6  0  0  0
 27 11  2  0  0  0  0
 28 15  2  0  0  0  0
 29 24  2  0  0  0  0
 30 26  2  0  0  0  0
  1 31  1  1  0  0  0
  2 32  1  6  0  0  0
  3 33  1  1  0  0  0
 34 15  1  0  0  0  0
 10 35  1  6  0  0  0
 10 36  1  1  0  0  0
 37 24  1  0  0  0  0
 38 29  1  0  0  0  0
 39 16  2  0  0  0  0
 40 39  1  0  0  0  0
 41 26  1  0  0  0  0
 42 40  2  0  0  0  0
 43 34  1  0  0  0  0
 44 37  1  0  0  0  0
 45 38  1  0  0  0  0
 11 10  1  0  0  0  0
  3 18  1  0  0  0  0
  2  7  1  0  0  0  0
 19  4  1  0  0  0  0
 29 42  1  0  0  0  0
 25 20  1  0  0  0  0
M  END
>  <IDNUMBER> (N064-0048)
N064-0048

>  <available> (N064-0048)
142

>  <H_acceptor> (N064-0048)
5

>  <H_donor> (N064-0048)
0

>  <B_rotN> (N064-0048)
6

>  <N_O> (N064-0048)
5

>  <logP> (N064-0048)
8.61

>  <logD> (N064-0048)
9.5

>  <logSw> (N064-0048)
-8.82

>  <PSA> (N064-0048)
61.83

>  <Chiral_centers> (N064-0048)
9

>  <Name> (N064-0048)
methyl (10E)-10-[(2,3-dimethoxyphenyl)methylidene]-5a,5b,8,8,11a-pentamethyl-9-oxo-1-(prop-1-en-2-yl)-icosahydro-1H-cyclopenta[a]chrysene-3a-carboxylate

>  <Smile> (N064-0048)
COc1c(c(C=C2CC3(C(CCC4(C5(C(C6C(C(=O)OC)(CC5)CCC6C(=C)C)CCC43)C)C)C(C2=O)(C)C)C)ccc1)OC

>  <Collection> (N064-0048)
DC

>  <InChI Key> (N064-0048)
WPSBODQYFORBIF-PQJUIOAWSA-N

>  <PERCENTSP3> (N064-0048)
70

$$$$

  -ISIS-  -- StrEd -- 

 45 49  0  0  0  0  0  0  0  0999 V2000
   -0.8606   -0.6923    0.0000 C   0  0  1  0  0  0  0  0  0  0  0  0
   -1.7066   -1.1937    0.0000 C   0  0  1  0  0  0  0  0  0  0  0  0
    0.8831    0.3478    0.0000 C   0  0  0  0  0  0  0  0  0  0  0  0
   -3.4431   -1.1937    0.0000 C   0  0  2  0  0  0  0  0  0  0  0  0
    0.0002    0.8570    0.0000 C   0  0  0  0  0  0  0  0  0  0  0  0
   -0.8606    0.3478    0.0000 C   0  0  0  0  0  0  0  0  0  0  0  0
   -2.5674   -0.6923    0.0000 C   0  0  0  0  0  0  0  0  0  0  0  0
    1.7813   -0.1910    0.0000 C   0  0  0  0  0  0  0  0  0  0  0  0
   -3.4431   -2.1442    0.0000 C   0  0  0  0  0  0  0  0  0  0  0  0
    2.6422    0.2955    0.0000 N   0  0  0  0  0  0  0  0  0  0  0  0
   -4.3112   -2.6834    0.0000 C   0  0  1  0  0  0  0  0  0  0  0  0
    4.3485    0.2432    0.0000 C   0  0  0  0  0  0  0  0  0  0  0  0
    0.2396    1.8599    0.0000 C   0  0  1  0  0  0  0  0  0  0  0  0
    3.4728   -0.2212    0.0000 C   0  0  0  0  0  0  0  0  0  0  0  0
    0.0002   -1.1415    0.0000 C   0  0  0  0  0  0  0  0  0  0  0  0
   -1.7066   -2.1442    0.0000 C   0  0  0  0  0  0  0  0  0  0  0  0
    0.8831   -0.6550    0.0000 C   0  0  0  0  0  0  0  0  0  0  0  0
    1.6392    1.0367    0.0000 C   0  0  0  0  0  0  0  0  0  0  0  0
   -5.1720   -2.1442    0.0000 C   0  0  0  0  0  0  0  0  0  0  0  0
   -1.7364    0.8343    0.0000 C   0  0  0  0  0  0  0  0  0  0  0  0
   -4.3112   -0.6923    0.0000 C   0  0  0  0  0  0  0  0  0  0  0  0
   -2.5674    0.3182    0.0000 C   0  0  0  0  0  0  0  0  0  0  0  0
   -2.5674   -2.6460    0.0000 C   0  0  0  0  0  0  0  0  0  0  0  0
    4.4233    1.2311    0.0000 O   0  0  0  0  0  0  0  0  0  0  0  0
    1.2274    1.9496    0.0000 C   0  0  0  0  0  0  0  0  0  0  0  0
   -0.4115    2.5934    0.0000 C   0  0  0  0  0  0  0  0  0  0  0  0
    1.7962   -1.1788    0.0000 O   0  0  0  0  0  0  0  0  0  0  0  0
    5.2094   -0.2955    0.0000 O   0  0  0  0  0  0  0  0  0  0  0  0
   -5.1720   -1.1937    0.0000 C   0  0  0  0  0  0  0  0  0  0  0  0
    5.3215    1.6653    0.0000 C   0  0  0  0  0  0  0  0  0  0  0  0
   -6.1972   -2.6834    0.0000 O   0  0  0  0  0  0  0  0  0  0  0  0
   -0.0674    3.5289    0.0000 C   0  0  0  0  0  0  0  0  0  0  0  0
    3.4129   -1.2090    0.0000 C   0  0  0  0  0  0  0  0  0  0  0  0
   -0.8606   -1.6429    0.0000 C   0  0  0  0  0  0  0  0  0  0  0  0
   -1.7066   -0.2955    0.0000 C   0  0  0  0  0  0  0  0  0  0  0  0
   -3.4431   -0.1910    0.0000 C   0  0  0  0  0  0  0  0  0  0  0  0
   -3.7873   -3.5289    0.0000 C   0  0  0  0  0  0  0  0  0  0  0  0
   -5.2617   -3.2969    0.0000 C   0  0  0  0  0  0  0  0  0  0  0  0
   -1.3773    2.4361    0.0000 C   0  0  0  0  0  0  0  0  0  0  0  0
    6.1972    2.1142    0.0000 C   0  0  0  0  0  0  0  0  0  0  0  0
    4.8724    2.5409    0.0000 C   0  0  0  0  0  0  0  0  0  0  0  0
    5.7481    0.7297    0.0000 C   0  0  0  0  0  0  0  0  0  0  0  0
    2.5372   -1.6581    0.0000 C   0  0  0  0  0  0  0  0  0  0  0  0
    4.2438   -1.7478    0.0000 C   0  0  0  0  0  0  0  0  0  0  0  0
    2.4998   -2.6460    0.0000 C   0  0  0  0  0  0  0  0  0  0  0  0
  2  1  1  0  0  0  0
  3 17  1  0  0  0  0
  7  4  1  0  0  0  0
  6  5  1  0  0  0  0
  6  1  1  0  0  0  0
  7  2  1  0  0  0  0
  3  8  1  0  0  0  0
  9 23  1  0  0  0  0
 10  8  1  0  0  0  0
 11  9  1  0  0  0  0
 14 12  1  0  0  0  0
 13  5  1  0  0  0  0
 14 10  1  0  0  0  0
 15  1  1  0  0  0  0
 16  2  1  0  0  0  0
 17 15  1  0  0  0  0
 18  3  1  0  0  0  0
 19 11  1  0  0  0  0
 20  6  1  0  0  0  0
 21  4  1  0  0  0  0
 22 20  1  0  0  0  0
 23 16  1  0  0  0  0
 24 12  1  0  0  0  0
 25 13  1  0  0  0  0
 13 26  1  6  0  0  0
 27  8  2  0  0  0  0
 28 12  2  0  0  0  0
 29 21  1  0  0  0  0
 30 24  1  0  0  0  0
 31 19  2  0  0  0  0
 32 26  2  0  0  0  0
 33 14  1  0  0  0  0
  1 34  1  6  0  0  0
  2 35  1  1  0  0  0
  4 36  1  1  0  0  0
 11 37  1  6  0  0  0
 11 38  1  1  0  0  0
 39 26  1  0  0  0  0
 40 30  1  0  0  0  0
 41 30  1  0  0  0  0
 42 30  1  0  0  0  0
 43 33  1  0  0  0  0
 44 33  1  0  0  0  0
 45 43  1  0  0  0  0
  3  5  1  0  0  0  0
  7 22  1  0  0  0  0
 18 25  1  0  0  0  0
  4  9  1  0  0  0  0
 29 19  1  0  0  0  0
M  END
>  <IDNUMBER> (N064-0052)
N064-0052

>  <available> (N064-0052)
240

>  <H_acceptor> (N064-0052)
4

>  <H_donor> (N064-0052)
1

>  <B_rotN> (N064-0052)
9

>  <N_O> (N064-0052)
5

>  <logP> (N064-0052)
8.51

>  <logD> (N064-0052)
10.56

>  <logSw> (N064-0052)
-9.13

>  <PSA> (N064-0052)
72.47

>  <Chiral_centers> (N064-0052)
11

>  <Name> (N064-0052)
tert-butyl 2-{[5a,5b,8,8,11a-pentamethyl-9-oxo-1-(prop-1-en-2-yl)-icosahydro-1H-cyclopenta[a]chrysen-3a-yl]formamido}-3-methylpentanoate

>  <Smile> (N064-0052)
CCC(C(NC(C12CCC3(C(C2C(C(=C)C)CC1)CCC1C3(C)CCC2C1(C)CCC(C2(C)C)=O)C)=O)C(OC(C)(C)C)=O)C

>  <Collection> (N064-0052)
DC

>  <InChI Key> (N064-0052)
RJXRKUDWSQBMTQ-SLIOVYRPSA-N

>  <PERCENTSP3> (N064-0052)
87.5

$$$$

  -ISIS-  -- StrEd -- 

 32 37  0  0  0  0  0  0  0  0999 V2000
    1.1641   -0.5831    0.0000 C   0  0  1  0  0  0  0  0  0  0  0  0
    0.2818   -1.0851    0.0000 C   0  0  1  0  0  0  0  0  0  0  0  0
   -1.4480   -1.0851    0.0000 C   0  0  2  0  0  0  0  0  0  0  0  0
    1.1641    0.4346    0.0000 C   0  0  0  0  0  0  0  0  0  0  0  0
   -0.5786   -0.5611    0.0000 C   0  0  0  0  0  0  0  0  0  0  0  0
   -1.4480   -2.0811    0.0000 C   0  0  0  0  0  0  0  0  0  0  0  0
    2.0331    0.9282    0.0000 C   0  0  0  0  0  0  0  0  0  0  0  0
   -2.3171   -2.5833    0.0000 C   0  0  2  0  0  0  0  0  0  0  0  0
    2.0419    1.9022    0.0000 C   0  0  0  0  0  0  0  0  0  0  0  0
    3.2082    1.3782    0.0000 O   0  0  0  0  0  0  0  0  0  0  0  0
    2.8936    0.4258    0.0000 C   0  0  0  0  0  0  0  0  0  0  0  0
    0.2818   -2.0811    0.0000 C   0  0  0  0  0  0  0  0  0  0  0  0
   -3.1992   -2.0811    0.0000 C   0  0  0  0  0  0  0  0  0  0  0  0
    0.2818    0.9368    0.0000 C   0  0  0  0  0  0  0  0  0  0  0  0
    2.0331   -1.0634    0.0000 C   0  0  0  0  0  0  0  0  0  0  0  0
   -2.3171   -0.5611    0.0000 C   0  0  0  0  0  0  0  0  0  0  0  0
    2.8805    2.3957    0.0000 C   0  0  1  0  0  0  0  0  0  0  0  0
   -0.5786    0.4346    0.0000 C   0  0  0  0  0  0  0  0  0  0  0  0
   -0.5786   -2.5833    0.0000 C   0  0  0  0  0  0  0  0  0  0  0  0
    4.0467    0.1507    0.0000 C   0  0  0  0  0  0  0  0  0  0  0  0
    2.8936   -0.5611    0.0000 C   0  0  0  0  0  0  0  0  0  0  0  0
   -3.1992   -1.0851    0.0000 C   0  0  0  0  0  0  0  0  0  0  0  0
    3.7409    0.9282    0.0000 C   0  0  0  0  0  0  0  0  0  0  0  0
    3.7409    1.9109    0.0000 C   0  0  0  0  0  0  0  0  0  0  0  0
   -4.0467   -2.5833    0.0000 O   0  0  0  0  0  0  0  0  0  0  0  0
    1.1641   -1.4304    0.0000 C   0  0  0  0  0  0  0  0  0  0  0  0
    0.3035   -0.2380    0.0000 C   0  0  0  0  0  0  0  0  0  0  0  0
   -1.4480   -0.2031    0.0000 C   0  0  0  0  0  0  0  0  0  0  0  0
   -3.0419   -3.0334    0.0000 C   0  0  0  0  0  0  0  0  0  0  0  0
   -1.5919   -3.0027    0.0000 C   0  0  0  0  0  0  0  0  0  0  0  0
    2.0854    2.9198    0.0000 C   0  0  0  0  0  0  0  0  0  0  0  0
    3.4570    3.0334    0.0000 C   0  0  0  0  0  0  0  0  0  0  0  0
  2  1  1  0  0  0  0
  5  3  1  0  0  0  0
  4  1  1  0  0  0  0
  5  2  1  0  0  0  0
  6 19  1  0  0  0  0
  7  4  1  0  0  0  0
  8  6  1  0  0  0  0
  9  7  1  0  0  0  0
 10  9  1  0  0  0  0
 11 21  1  0  0  0  0
 12  2  1  0  0  0  0
 13  8  1  0  0  0  0
 14  4  1  0  0  0  0
 15  1  1  0  0  0  0
 16  3  1  0  0  0  0
 17  9  1  0  0  0  0
 18 14  1  0  0  0  0
 19 12  1  0  0  0  0
 11 20  1  0  0  0  0
 21 15  1  0  0  0  0
 22 16  1  0  0  0  0
 23 11  1  0  0  0  0
 24 23  1  0  0  0  0
 25 13  2  0  0  0  0
  1 26  1  6  0  0  0
  2 27  1  1  0  0  0
  3 28  1  1  0  0  0
  8 29  1  1  0  0  0
  8 30  1  6  0  0  0
 17 31  1  6  0  0  0
 17 32  1  1  0  0  0
 11  7  1  0  0  0  0
 18  5  1  0  0  0  0
 10 20  1  0  0  0  0
  3  6  1  0  0  0  0
 17 24  1  0  0  0  0
 22 13  1  0  0  0  0
M  END
>  <IDNUMBER> (N066-0059)
N066-0059

>  <available> (N066-0059)
860

>  <H_acceptor> (N066-0059)
2

>  <H_donor> (N066-0059)
0

>  <B_rotN> (N066-0059)
0

>  <N_O> (N066-0059)
2

>  <logP> (N066-0059)
6.16

>  <logD> (N066-0059)
7.8

>  <logSw> (N066-0059)
-9.3

>  <PSA> (N066-0059)
26.3

>  <Chiral_centers> (N066-0059)
9

>  <Name> (N066-0059)
4,5,9,9,13,20,20-HEPTAMETHYL-24-OXAHEXACYCLO[17.3.2.0^(1,18).0^(4,17).0^(5,14).0^(8,13)]TETRACOSAN-10-ONE

>  <Smile> (N066-0059)
CC1(C2C3C4C(CCC3(CO2)CC1)(C1(C)C(C2(C(CC1)C(C)(C)C(=O)CC2)C)CC4)C)C

>  <Collection> (N066-0059)
DC

>  <InChI Key> (N066-0059)
XGDVSJLOTVQNKY-IEWJSYTLSA-N

>  <PERCENTSP3> (N066-0059)
96.7

$$$$

  -ISIS-  -- StrEd -- 

 37 41  0  0  0  0  0  0  0  0999 V2000
    1.7272   -0.8393    0.0000 C   0  0  1  0  0  0  0  0  0  0  0  0
    0.8300   -1.3483    0.0000 C   0  0  1  0  0  0  0  0  0  0  0  0
   -0.9393   -1.3483    0.0000 C   0  0  2  0  0  0  0  0  0  0  0  0
    1.7272    0.2043    0.0000 C   0  0  0  0  0  0  0  0  0  0  0  0
   -0.0470   -0.8190    0.0000 C   0  0  0  0  0  0  0  0  0  0  0  0
   -0.9393   -2.3665    0.0000 C   0  0  0  0  0  0  0  0  0  0  0  0
    2.6093    0.7034    0.0000 C   0  0  0  0  0  0  0  0  0  0  0  0
   -1.8212   -2.8753    0.0000 C   0  0  2  0  0  0  0  0  0  0  0  0
    2.7806    1.6961    0.0000 C   0  0  0  0  0  0  0  0  0  0  0  0
    3.4913    0.1892    0.0000 C   0  0  0  0  0  0  0  0  0  0  0  0
    0.8300   -2.3665    0.0000 C   0  0  0  0  0  0  0  0  0  0  0  0
    2.6093   -1.3332    0.0000 C   0  0  0  0  0  0  0  0  0  0  0  0
    0.8300    0.7132    0.0000 C   0  0  0  0  0  0  0  0  0  0  0  0
   -1.8212   -0.8190    0.0000 C   0  0  0  0  0  0  0  0  0  0  0  0
   -0.0470    0.2043    0.0000 C   0  0  0  0  0  0  0  0  0  0  0  0
   -0.0470   -2.8753    0.0000 C   0  0  0  0  0  0  0  0  0  0  0  0
    2.0801    2.3867    0.0000 C   0  0  0  0  0  0  0  0  0  0  0  0
    3.8342    1.8221    0.0000 C   0  0  0  0  0  0  0  0  0  0  0  0
   -2.7235   -2.3665    0.0000 C   0  0  0  0  0  0  0  0  0  0  0  0
    3.4913   -0.8190    0.0000 C   0  0  0  0  0  0  0  0  0  0  0  0
    4.2624    0.8898    0.0000 C   0  0  0  0  0  0  0  0  0  0  0  0
    5.3160   -1.8020    0.0000 C   0  0  0  0  0  0  0  0  0  0  0  0
   -2.7235   -1.3483    0.0000 C   0  0  0  0  0  0  0  0  0  0  0  0
    5.3160   -2.7947    0.0000 O   0  0  0  0  0  0  0  0  0  0  0  0
    2.3321    3.3393    0.0000 C   0  0  0  0  0  0  0  0  0  0  0  0
    1.7272   -1.7010    0.0000 C   0  0  0  0  0  0  0  0  0  0  0  0
    0.8452   -0.4813    0.0000 C   0  0  0  0  0  0  0  0  0  0  0  0
   -0.9393   -0.4460    0.0000 C   0  0  0  0  0  0  0  0  0  0  0  0
    4.4542   -1.3129    0.0000 O   0  0  0  0  0  0  0  0  0  0  0  0
   -2.5622   -3.3393    0.0000 C   0  0  0  0  0  0  0  0  0  0  0  0
   -1.0904   -3.3037    0.0000 C   0  0  0  0  0  0  0  0  0  0  0  0
   -3.5852   -2.8753    0.0000 O   0  0  0  0  0  0  0  0  0  0  0  0
    4.4542   -0.3402    0.0000 C   0  0  0  0  0  0  0  0  0  0  0  0
    1.1275    2.1345    0.0000 C   0  0  0  0  0  0  0  0  0  0  0  0
   -4.4522   -2.3763    0.0000 C   0  0  0  0  0  0  0  0  0  0  0  0
   -5.3160   -2.8766    0.0000 H   0  0  0  0  0  0  0  0  0  0  0  0
   -4.4535   -1.3783    0.0000 O   0  0  0  0  0  0  0  0  0  0  0  0
  4  1  1  0  0  0  0
  5  2  1  0  0  0  0
  6 16  1  0  0  0  0
  7  4  1  0  0  0  0
  8  6  1  0  0  0  0
  9  7  1  0  0  0  0
 10 20  1  0  0  0  0
 11  2  1  0  0  0  0
 12  1  1  0  0  0  0
 13  4  1  0  0  0  0
 14  3  1  0  0  0  0
 15 13  1  0  0  0  0
 16 11  1  0  0  0  0
  9 17  1  0  0  0  0
 18  9  1  0  0  0  0
 19  8  1  0  0  0  0
 20 12  1  0  0  0  0
 21 10  1  0  0  0  0
 22 29  1  0  0  0  0
 23 14  1  0  0  0  0
 24 22  2  0  0  0  0
 25 17  2  0  0  0  0
  1 26  1  6  0  0  0
  2 27  1  1  0  0  0
  3 28  1  1  0  0  0
 29 33  1  0  0  0  0
  8 30  1  1  0  0  0
  8 31  1  6  0  0  0
 19 32  1  0  0  0  0
 10 33  1  0  0  0  0
 34 17  1  0  0  0  0
  7 10  1  0  0  0  0
 15  5  1  0  0  0  0
 18 21  1  0  0  0  0
  6  3  1  0  0  0  0
 19 23  1  0  0  0  0
 32 35  1  0  0  0  0
  2  1  1  0  0  0  0
 35 36  1  0  0  0  0
  3  5  1  0  0  0  0
 35 37  2  0  0  0  0
M  END
>  <IDNUMBER> (N066-0061)
N066-0061

>  <available> (N066-0061)
611

>  <H_acceptor> (N066-0061)
4

>  <H_donor> (N066-0061)
0

>  <B_rotN> (N066-0061)
6

>  <N_O> (N066-0061)
4

>  <logP> (N066-0061)
5.57

>  <logD> (N066-0061)
7.67

>  <logSw> (N066-0061)
-9.53

>  <PSA> (N066-0061)
52.6

>  <Chiral_centers> (N066-0061)
10

>  <Name> (N066-0061)
[9-(formyloxy)-5a,5b,8,8,11a-pentamethyl-1-(prop-1-en-2-yl)-icosahydro-1H-cyclopenta[a]chrysen-3a-yl]methyl formate

>  <Smile> (N066-0061)
O=COC1C(C2C(C3C(C4(CCC5(C(C4CC3)C(CC5)C(=C)C)COC=O)C)(C)CC2)(CC1)C)(C)C

>  <Collection> (N066-0061)
DC

>  <InChI Key> (N066-0061)
BCJRMIAGIXJFNK-BCCLYDGLSA-N

>  <PERCENTSP3> (N066-0061)
87.5

$$$$

  -ISIS-  -- StrEd -- 

 39 43  0  0  0  0  0  0  0  0999 V2000
   -0.9519   -1.3465    0.0000 C   0  0  2  0  0  0  0  0  0  0  0  0
    1.7098   -0.8427    0.0000 C   0  0  1  0  0  0  0  0  0  0  0  0
    0.8135   -1.3465    0.0000 C   0  0  1  0  0  0  0  0  0  0  0  0
    3.4754    0.1917    0.0000 C   0  0  0  0  0  0  0  0  0  0  0  0
    2.5881    0.7088    0.0000 C   0  0  0  0  0  0  0  0  0  0  0  0
    1.7098    0.2052    0.0000 C   0  0  0  0  0  0  0  0  0  0  0  0
   -2.7398   -1.3465    0.0000 C   0  0  0  0  0  0  0  0  0  0  0  0
   -0.0647   -0.8249    0.0000 C   0  0  0  0  0  0  0  0  0  0  0  0
   -0.9519   -2.3630    0.0000 C   0  0  0  0  0  0  0  0  0  0  0  0
   -1.8437   -2.8759    0.0000 C   0  0  2  0  0  0  0  0  0  0  0  0
   -2.7398   -2.3630    0.0000 C   0  0  0  0  0  0  0  0  0  0  0  0
   -1.8437   -0.8249    0.0000 C   0  0  0  0  0  0  0  0  0  0  0  0
    2.7621    1.6897    0.0000 C   0  0  0  0  0  0  0  0  0  0  0  0
    4.4385   -0.3434    0.0000 C   0  0  0  0  0  0  0  0  0  0  0  0
   -3.6182   -0.8873    0.0000 C   0  0  0  0  0  0  0  0  0  0  0  0
   -4.5189    0.5574    0.0000 C   0  0  0  0  0  0  0  0  0  0  0  0
    2.5881   -1.3378    0.0000 C   0  0  0  0  0  0  0  0  0  0  0  0
    0.8135   -2.3630    0.0000 C   0  0  0  0  0  0  0  0  0  0  0  0
    3.4754   -0.8249    0.0000 C   0  0  0  0  0  0  0  0  0  0  0  0
    4.2467    0.8873    0.0000 C   0  0  0  0  0  0  0  0  0  0  0  0
    0.8135    0.7178    0.0000 C   0  0  0  0  0  0  0  0  0  0  0  0
   -0.0647   -2.8759    0.0000 C   0  0  0  0  0  0  0  0  0  0  0  0
   -0.0647    0.2052    0.0000 C   0  0  0  0  0  0  0  0  0  0  0  0
    3.8188    1.8325    0.0000 C   0  0  0  0  0  0  0  0  0  0  0  0
    2.0666    2.3854    0.0000 C   0  0  0  0  0  0  0  0  0  0  0  0
   -3.6182    0.0981    0.0000 N   0  0  0  0  0  0  0  0  0  0  0  0
   -3.6049   -2.8759    0.0000 O   0  0  0  0  0  0  0  0  0  0  0  0
   -5.3391    0.0133    0.0000 O   0  0  0  0  0  0  0  0  0  0  0  0
    5.3391    0.0757    0.0000 O   0  0  0  0  0  0  0  0  0  0  0  0
    2.3117    3.3394    0.0000 C   0  0  0  0  0  0  0  0  0  0  0  0
   -4.5054    1.5739    0.0000 N   0  0  0  0  0  0  0  0  0  0  0  0
   -0.9519   -0.4503    0.0000 C   0  0  0  0  0  0  0  0  0  0  0  0
    1.7098   -1.6987    0.0000 C   0  0  0  0  0  0  0  0  0  0  0  0
    0.8226   -0.4815    0.0000 C   0  0  0  0  0  0  0  0  0  0  0  0
    4.4385   -1.3153    0.0000 O   0  0  0  0  0  0  0  0  0  0  0  0
   -2.5794   -3.3394    0.0000 C   0  0  0  0  0  0  0  0  0  0  0  0
   -1.1035   -3.3037    0.0000 C   0  0  0  0  0  0  0  0  0  0  0  0
    1.1124    2.1400    0.0000 C   0  0  0  0  0  0  0  0  0  0  0  0
    5.2945   -1.8058    0.0000 C   0  0  0  0  0  0  0  0  0  0  0  0
  2  3  1  0  0  0  0
  8  3  1  0  0  0  0
  5  4  1  0  0  0  0
  6  5  1  0  0  0  0
  6 21  1  0  0  0  0
  7 12  1  0  0  0  0
  8  1  1  0  0  0  0
  9  1  1  0  0  0  0
 10  9  1  0  0  0  0
 11  7  1  0  0  0  0
 12  1  1  0  0  0  0
 13  5  1  0  0  0  0
  4 14  1  0  0  0  0
 15  7  2  0  0  0  0
 16 26  1  0  0  0  0
 17  2  1  0  0  0  0
 18 22  1  0  0  0  0
 19 17  1  0  0  0  0
 20  4  1  0  0  0  0
 21 23  1  0  0  0  0
 22  9  1  0  0  0  0
 23  8  1  0  0  0  0
 24 13  1  0  0  0  0
 13 25  1  0  0  0  0
 26 15  1  0  0  0  0
 27 11  2  0  0  0  0
 28 16  2  0  0  0  0
 29 14  2  0  0  0  0
 30 25  2  0  0  0  0
 31 16  1  0  0  0  0
  1 32  1  1  0  0  0
  2 33  1  6  0  0  0
  3 34  1  1  0  0  0
 35 14  1  0  0  0  0
 10 36  1  1  0  0  0
 10 37  1  6  0  0  0
 38 25  1  0  0  0  0
 39 35  1  0  0  0  0
 10 11  1  0  0  0  0
 18  3  1  0  0  0  0
  6  2  1  0  0  0  0
  4 19  1  0  0  0  0
 24 20  1  0  0  0  0
M  END
>  <IDNUMBER> (N066-0065)
N066-0065

>  <available> (N066-0065)
385

>  <H_acceptor> (N066-0065)
4

>  <H_donor> (N066-0065)
3

>  <B_rotN> (N066-0065)
5

>  <N_O> (N066-0065)
6

>  <logP> (N066-0065)
5.51

>  <logD> (N066-0065)
7.28

>  <logSw> (N066-0065)
-7.25

>  <PSA> (N066-0065)
98.49

>  <Chiral_centers> (N066-0065)
9

>  <Name> (N066-0065)
methyl (10E)-10-[(carbamoylamino)methylidene]-5a,5b,8,8,11a-pentamethyl-9-oxo-1-(prop-1-en-2-yl)-icosahydro-1H-cyclopenta[a]chrysene-3a-carboxylate

>  <Smile> (N066-0065)
COC(C12CCC3(C4(CCC5C(CC(C(C5(C)C)=O)=CNC(=O)N)(C4CCC3C1C(CC2)C(=C)C)C)C)C)=O

>  <Collection> (N066-0065)
DC

>  <InChI Key> (N066-0065)
JYLPMVGAHNRXDC-YGCHVJIVSA-N

>  <PERCENTSP3> (N066-0065)
78.8

$$$$

  -ISIS-  -- StrEd -- 

 32 37  0  0  0  0  0  0  0  0999 V2000
    1.1641   -0.5831    0.0000 C   0  0  1  0  0  0  0  0  0  0  0  0
    0.2818   -1.0851    0.0000 C   0  0  1  0  0  0  0  0  0  0  0  0
   -1.4480   -1.0851    0.0000 C   0  0  2  0  0  0  0  0  0  0  0  0
    1.1641    0.4346    0.0000 C   0  0  0  0  0  0  0  0  0  0  0  0
   -0.5786   -0.5611    0.0000 C   0  0  0  0  0  0  0  0  0  0  0  0
   -1.4480   -2.0811    0.0000 C   0  0  0  0  0  0  0  0  0  0  0  0
    2.0331    0.9282    0.0000 C   0  0  0  0  0  0  0  0  0  0  0  0
   -2.3171   -2.5833    0.0000 C   0  0  2  0  0  0  0  0  0  0  0  0
    2.0419    1.9022    0.0000 C   0  0  0  0  0  0  0  0  0  0  0  0
    3.2082    1.3782    0.0000 O   0  0  0  0  0  0  0  0  0  0  0  0
    2.8936    0.4258    0.0000 C   0  0  0  0  0  0  0  0  0  0  0  0
    0.2818   -2.0811    0.0000 C   0  0  0  0  0  0  0  0  0  0  0  0
    0.2818    0.9368    0.0000 C   0  0  0  0  0  0  0  0  0  0  0  0
    2.0331   -1.0634    0.0000 C   0  0  0  0  0  0  0  0  0  0  0  0
   -2.3171   -0.5611    0.0000 C   0  0  0  0  0  0  0  0  0  0  0  0
    2.8805    2.3957    0.0000 C   0  0  1  0  0  0  0  0  0  0  0  0
   -0.5786    0.4346    0.0000 C   0  0  0  0  0  0  0  0  0  0  0  0
   -0.5786   -2.5833    0.0000 C   0  0  0  0  0  0  0  0  0  0  0  0
    4.0467    0.1507    0.0000 C   0  0  0  0  0  0  0  0  0  0  0  0
   -3.1992   -2.0811    0.0000 C   0  0  0  0  0  0  0  0  0  0  0  0
    2.8936   -0.5611    0.0000 C   0  0  0  0  0  0  0  0  0  0  0  0
    3.7409    0.9282    0.0000 C   0  0  0  0  0  0  0  0  0  0  0  0
    3.7409    1.9109    0.0000 C   0  0  0  0  0  0  0  0  0  0  0  0
   -3.1992   -1.0851    0.0000 C   0  0  0  0  0  0  0  0  0  0  0  0
    1.1641   -1.4304    0.0000 C   0  0  0  0  0  0  0  0  0  0  0  0
    0.3035   -0.2380    0.0000 C   0  0  0  0  0  0  0  0  0  0  0  0
   -1.4480   -0.2031    0.0000 C   0  0  0  0  0  0  0  0  0  0  0  0
   -3.0419   -3.0334    0.0000 C   0  0  0  0  0  0  0  0  0  0  0  0
   -1.5919   -3.0027    0.0000 C   0  0  0  0  0  0  0  0  0  0  0  0
   -4.0467   -2.5833    0.0000 O   0  0  0  0  0  0  0  0  0  0  0  0
    2.0854    2.9198    0.0000 C   0  0  0  0  0  0  0  0  0  0  0  0
    3.4570    3.0334    0.0000 C   0  0  0  0  0  0  0  0  0  0  0  0
  2  1  1  0  0  0  0
  5  3  1  0  0  0  0
  4  1  1  0  0  0  0
  5  2  1  0  0  0  0
  6 18  1  0  0  0  0
  7  4  1  0  0  0  0
  8  6  1  0  0  0  0
  9  7  1  0  0  0  0
 10  9  1  0  0  0  0
 11 21  1  0  0  0  0
 12  2  1  0  0  0  0
 13  4  1  0  0  0  0
 14  1  1  0  0  0  0
 15  3  1  0  0  0  0
 16  9  1  0  0  0  0
 17 13  1  0  0  0  0
 18 12  1  0  0  0  0
 11 19  1  0  0  0  0
 20  8  1  0  0  0  0
 21 14  1  0  0  0  0
 22 11  1  0  0  0  0
 23 22  1  0  0  0  0
 24 15  1  0  0  0  0
  1 25  1  6  0  0  0
  2 26  1  1  0  0  0
  3 27  1  1  0  0  0
  8 28  1  1  0  0  0
  8 29  1  6  0  0  0
 20 30  1  0  0  0  0
 16 31  1  6  0  0  0
 16 32  1  1  0  0  0
  7 11  1  0  0  0  0
  5 17  1  0  0  0  0
 19 10  1  0  0  0  0
  6  3  1  0  0  0  0
 23 16  1  0  0  0  0
 20 24  1  0  0  0  0
M  END
>  <IDNUMBER> (N066-0067)
N066-0067

>  <available> (N066-0067)
80

>  <H_acceptor> (N066-0067)
2

>  <H_donor> (N066-0067)
1

>  <B_rotN> (N066-0067)
1

>  <N_O> (N066-0067)
2

>  <logP> (N066-0067)
6.2

>  <logD> (N066-0067)
8.17

>  <logSw> (N066-0067)
-9.36

>  <PSA> (N066-0067)
29.46

>  <Chiral_centers> (N066-0067)
10

>  <Name> (N066-0067)
4,5,9,9,13,20,20-HEPTAMETHYL-24-OXAHEXACYCLO[17.3.2.0^(1,18).0^(4,17).0^(5,14).0^(8,13)]TETRACOSAN-10-OL

>  <Smile> (N066-0067)
CC1(C2C3C4C(CCC3(CO2)CC1)(C1(C)C(C2(CCC(C(C2CC1)(C)C)O)C)CC4)C)C

>  <Collection> (N066-0067)
DC

>  <InChI Key> (N066-0067)
BZNIIOGSANMIET-OGRWGTANSA-N

>  <PERCENTSP3> (N066-0067)
100

$$$$

  -ISIS-  -- StrEd -- 

 33 38  0  0  0  0  0  0  0  0999 V2000
    1.6330   -0.4234    0.0000 C   0  0  1  0  0  0  0  0  0  0  0  0
    0.7907   -0.9157    0.0000 C   0  0  1  0  0  0  0  0  0  0  0  0
   -0.9407   -0.9157    0.0000 C   0  0  2  0  0  0  0  0  0  0  0  0
    1.6330    0.5778    0.0000 C   0  0  0  0  0  0  0  0  0  0  0  0
   -0.0898   -0.4234    0.0000 C   0  0  0  0  0  0  0  0  0  0  0  0
   -0.9407   -1.9253    0.0000 C   0  0  0  0  0  0  0  0  0  0  0  0
    2.4843    1.0576    0.0000 C   0  0  0  0  0  0  0  0  0  0  0  0
   -1.8127   -2.4176    0.0000 C   0  0  2  0  0  0  0  0  0  0  0  0
    2.4925    2.0170    0.0000 C   0  0  0  0  0  0  0  0  0  0  0  0
    3.7358    1.3996    0.0000 O   0  0  0  0  0  0  0  0  0  0  0  0
    3.3563    0.5778    0.0000 C   0  0  0  0  0  0  0  0  0  0  0  0
    0.7822   -1.9253    0.0000 C   0  0  0  0  0  0  0  0  0  0  0  0
   -2.6722   -1.9253    0.0000 C   0  0  0  0  0  0  0  0  0  0  0  0
    0.7738    1.0784    0.0000 C   0  0  0  0  0  0  0  0  0  0  0  0
    2.4843   -0.9157    0.0000 C   0  0  0  0  0  0  0  0  0  0  0  0
   -1.8127   -0.4234    0.0000 C   0  0  0  0  0  0  0  0  0  0  0  0
    3.3271    2.5178    0.0000 C   0  0  1  0  0  0  0  0  0  0  0  0
   -0.0898    0.5778    0.0000 C   0  0  0  0  0  0  0  0  0  0  0  0
   -0.0898   -2.4176    0.0000 C   0  0  0  0  0  0  0  0  0  0  0  0
    4.3450    0.1481    0.0000 C   0  0  0  0  0  0  0  0  0  0  0  0
   -3.5022   -2.4259    0.0000 N   0  0  0  0  0  0  0  0  0  0  0  0
    3.3563   -0.4234    0.0000 C   0  0  0  0  0  0  0  0  0  0  0  0
   -2.6722   -0.9157    0.0000 C   0  0  0  0  0  0  0  0  0  0  0  0
    4.1657    1.0074    0.0000 C   0  0  0  0  0  0  0  0  0  0  0  0
    4.1781    2.0379    0.0000 C   0  0  0  0  0  0  0  0  0  0  0  0
    1.6330   -1.3370    0.0000 C   0  0  0  0  0  0  0  0  0  0  0  0
    0.7822   -0.0229    0.0000 C   0  0  0  0  0  0  0  0  0  0  0  0
   -0.9407   -0.0523    0.0000 C   0  0  0  0  0  0  0  0  0  0  0  0
   -4.3450   -1.9544    0.0000 O   0  0  0  0  0  0  0  0  0  0  0  0
   -2.4634   -3.0183    0.0000 C   0  0  0  0  0  0  0  0  0  0  0  0
   -1.1619   -3.0183    0.0000 C   0  0  0  0  0  0  0  0  0  0  0  0
    2.3758    3.0183    0.0000 C   0  0  0  0  0  0  0  0  0  0  0  0
    4.0948    3.0183    0.0000 C   0  0  0  0  0  0  0  0  0  0  0  0
  2  1  1  0  0  0  0
  5  3  1  0  0  0  0
  4  1  1  0  0  0  0
  5  2  1  0  0  0  0
  6 19  1  0  0  0  0
  7  4  1  0  0  0  0
  8  6  1  0  0  0  0
  9  7  1  0  0  0  0
 10  9  1  0  0  0  0
 11 22  1  0  0  0  0
 12  2  1  0  0  0  0
 13  8  1  0  0  0  0
 14  4  1  0  0  0  0
 15  1  1  0  0  0  0
 16  3  1  0  0  0  0
 17  9  1  0  0  0  0
 18 14  1  0  0  0  0
 19 12  1  0  0  0  0
 11 20  1  0  0  0  0
 21 13  2  0  0  0  0
 22 15  1  0  0  0  0
 23 16  1  0  0  0  0
 24 11  1  0  0  0  0
 25 24  1  0  0  0  0
  1 26  1  6  0  0  0
  2 27  1  1  0  0  0
  3 28  1  1  0  0  0
 29 21  1  0  0  0  0
  8 30  1  1  0  0  0
  8 31  1  6  0  0  0
 17 32  1  6  0  0  0
 17 33  1  1  0  0  0
  7 11  1  0  0  0  0
  5 18  1  0  0  0  0
 20 10  1  0  0  0  0
  3  6  1  0  0  0  0
 25 17  1  0  0  0  0
 23 13  1  0  0  0  0
M  END
>  <IDNUMBER> (N069-0072)
N069-0072

>  <available> (N069-0072)
658

>  <H_acceptor> (N069-0072)
3

>  <H_donor> (N069-0072)
1

>  <B_rotN> (N069-0072)
1

>  <N_O> (N069-0072)
3

>  <logP> (N069-0072)
6.06

>  <logD> (N069-0072)
9.05

>  <logSw> (N069-0072)
-9.1

>  <PSA> (N069-0072)
41.82

>  <Chiral_centers> (N069-0072)
9

>  <Name> (N069-0072)
N-[(10E)-4,5,9,9,13,20,20-HEPTAMETHYL-24-OXAHEXACYCLO[17.3.2.0^(1,18).0^(4,17).0^(5,14).0^(8,13)]TETRACOSAN-10-YLIDENE]HYDROXYLAMINE

>  <Smile> (N069-0072)
CC1(C2C3C4C(CCC3(CO2)CC1)(C1(C)C(C2(C(CC1)C(C)(C)C(=NO)CC2)C)CC4)C)C

>  <Collection> (N069-0072)
DC

>  <InChI Key> (N069-0072)
QXSNOJKVEVATLM-FBYKGHARSA-N

>  <PERCENTSP3> (N069-0072)
96.7

$$$$

  -ISIS-  -- StrEd -- 

 39 44  0  0  0  0  0  0  0  0999 V2000
    2.8945   -0.4986    0.0000 C   0  0  1  0  0  0  0  0  0  0  0  0
    2.0409   -0.9909    0.0000 C   0  0  1  0  0  0  0  0  0  0  0  0
    0.2961   -0.9909    0.0000 C   0  0  2  0  0  0  0  0  0  0  0  0
    2.8945    0.5047    0.0000 C   0  0  0  0  0  0  0  0  0  0  0  0
    1.1623   -0.4986    0.0000 C   0  0  0  0  0  0  0  0  0  0  0  0
    0.2961   -2.0068    0.0000 C   0  0  0  0  0  0  0  0  0  0  0  0
    3.7357    0.9845    0.0000 C   0  0  0  0  0  0  0  0  0  0  0  0
   -0.5765   -2.5052    0.0000 C   0  0  2  0  0  0  0  0  0  0  0  0
    3.7171    1.9381    0.0000 C   0  0  0  0  0  0  0  0  0  0  0  0
    5.0069    1.4456    0.0000 O   0  0  0  0  0  0  0  0  0  0  0  0
    4.6143    0.5047    0.0000 C   0  0  0  0  0  0  0  0  0  0  0  0
   -1.4425   -2.0068    0.0000 C   0  0  0  0  0  0  0  0  0  0  0  0
    2.0283   -2.0068    0.0000 C   0  0  0  0  0  0  0  0  0  0  0  0
    2.0159    1.0095    0.0000 C   0  0  0  0  0  0  0  0  0  0  0  0
    3.7357   -0.9909    0.0000 C   0  0  0  0  0  0  0  0  0  0  0  0
   -0.5765   -0.4986    0.0000 C   0  0  0  0  0  0  0  0  0  0  0  0
    4.5274    2.4613    0.0000 C   0  0  1  0  0  0  0  0  0  0  0  0
    1.1623    0.5047    0.0000 C   0  0  0  0  0  0  0  0  0  0  0  0
    1.1623   -2.5052    0.0000 C   0  0  0  0  0  0  0  0  0  0  0  0
   -2.2777   -2.5175    0.0000 O   0  0  0  0  0  0  0  0  0  0  0  0
   -3.1189   -2.0688    0.0000 C   0  0  0  0  0  0  0  0  0  0  0  0
    5.5117    0.0124    0.0000 C   0  0  0  0  0  0  0  0  0  0  0  0
   -4.7638   -1.1402    0.0000 C   0  0  0  0  0  0  0  0  0  0  0  0
    4.6143   -0.4986    0.0000 C   0  0  0  0  0  0  0  0  0  0  0  0
   -1.4425   -0.9909    0.0000 C   0  0  0  0  0  0  0  0  0  0  0  0
    5.4060    1.0281    0.0000 C   0  0  0  0  0  0  0  0  0  0  0  0
    5.3620    2.0002    0.0000 C   0  0  0  0  0  0  0  0  0  0  0  0
   -4.0289   -2.4863    0.0000 O   0  0  0  0  0  0  0  0  0  0  0  0
   -4.7766   -2.1125    0.0000 O   0  0  0  0  0  0  0  0  0  0  0  0
    2.8945   -1.4086    0.0000 C   0  0  0  0  0  0  0  0  0  0  0  0
    2.0283   -0.1121    0.0000 C   0  0  0  0  0  0  0  0  0  0  0  0
   -3.1189   -1.1528    0.0000 C   0  0  0  0  0  0  0  0  0  0  0  0
    0.2961   -0.1373    0.0000 C   0  0  0  0  0  0  0  0  0  0  0  0
   -3.9414   -0.6791    0.0000 C   0  0  0  0  0  0  0  0  0  0  0  0
   -5.5117   -0.6044    0.0000 O   0  0  0  0  0  0  0  0  0  0  0  0
   -1.2183   -3.1034    0.0000 C   0  0  0  0  0  0  0  0  0  0  0  0
    0.0841   -3.1034    0.0000 C   0  0  0  0  0  0  0  0  0  0  0  0
    3.5365    3.1034    0.0000 C   0  0  0  0  0  0  0  0  0  0  0  0
    5.3810    3.0783    0.0000 C   0  0  0  0  0  0  0  0  0  0  0  0
  2  1  1  0  0  0  0
  5  3  1  0  0  0  0
  4  1  1  0  0  0  0
  5  2  1  0  0  0  0
  6 19  1  0  0  0  0
  7  4  1  0  0  0  0
  8  6  1  0  0  0  0
  9  7  1  0  0  0  0
 10  9  1  0  0  0  0
 11 24  1  0  0  0  0
 12  8  1  0  0  0  0
 13  2  1  0  0  0  0
 14  4  1  0  0  0  0
 15  1  1  0  0  0  0
 16  3  1  0  0  0  0
 17  9  1  0  0  0  0
 18 14  1  0  0  0  0
 19 13  1  0  0  0  0
 12 20  1  0  0  0  0
 21 20  1  0  0  0  0
 22 11  1  0  0  0  0
 23 34  1  0  0  0  0
 24 15  1  0  0  0  0
 25 16  1  0  0  0  0
 26 11  1  0  0  0  0
 27 26  1  0  0  0  0
 28 21  2  0  0  0  0
 29 23  2  0  0  0  0
  1 30  1  6  0  0  0
  2 31  1  1  0  0  0
 32 21  1  0  0  0  0
  3 33  1  1  0  0  0
 34 32  1  0  0  0  0
 35 23  1  0  0  0  0
  8 36  1  1  0  0  0
  8 37  1  6  0  0  0
 17 38  1  6  0  0  0
 17 39  1  1  0  0  0
 11  7  1  0  0  0  0
  5 18  1  0  0  0  0
 10 22  1  0  0  0  0
  3  6  1  0  0  0  0
 27 17  1  0  0  0  0
 12 25  1  0  0  0  0
M  END
>  <IDNUMBER> (N072-0098)
N072-0098

>  <available> (N072-0098)
195

>  <H_acceptor> (N072-0098)
5

>  <H_donor> (N072-0098)
1

>  <B_rotN> (N072-0098)
6

>  <N_O> (N072-0098)
5

>  <logP> (N072-0098)
6.39

>  <logD> (N072-0098)
6.08

>  <logSw> (N072-0098)
-6.6

>  <PSA> (N072-0098)
72.83

>  <Chiral_centers> (N072-0098)
10

>  <Name> (N072-0098)
4-({4,5,9,9,13,20,20-HEPTAMETHYL-24-OXAHEXACYCLO[17.3.2.0^(1,18).0^(4,17).0^(5,14).0^(8,13)]TETRACOSAN-10-YL}OXY)-4-OXOBUTANOIC ACID

>  <Smile> (N072-0098)
CC1(C2C3C4C(CCC3(CO2)CC1)(C1(C)C(C2(C(CC1)C(C)(C)C(CC2)OC(=O)CCC(=O)O)C)CC4)C)C

>  <Collection> (N072-0098)
DC

>  <InChI Key> (N072-0098)
VGKCTPZQAGVLMW-YKZNFUDSSA-N

>  <PERCENTSP3> (N072-0098)
94.1

$$$$

  -ISIS-  -- StrEd -- 

 35 38  0  0  0  0  0  0  0  0999 V2000
   -0.3210    0.8922    0.0000 C   0  0  0  0  0  0  0  0  0  0  0  0
   -2.0302   -0.0834    0.0000 C   0  0  2  0  0  0  0  0  0  0  0  0
   -0.3210   -0.0834    0.0000 C   0  0  0  0  0  0  0  0  0  0  0  0
   -2.8722   -0.5712    0.0000 C   0  0  0  0  0  0  0  0  0  0  0  0
   -1.1840   -0.5712    0.0000 C   0  0  0  0  0  0  0  0  0  0  0  0
   -1.1840    1.3923    0.0000 C   0  0  2  0  0  0  0  0  0  0  0  0
   -2.0302    0.8922    0.0000 C   0  0  0  0  0  0  0  0  0  0  0  0
    1.3840    0.8922    0.0000 C   0  0  2  0  0  0  0  0  0  0  0  0
   -2.8722   -1.5593    0.0000 C   0  0  0  0  0  0  0  0  0  0  0  0
    0.5212   -0.5712    0.0000 C   0  0  0  0  0  0  0  0  0  0  0  0
   -3.7225   -0.0834    0.0000 C   0  0  0  0  0  0  0  0  0  0  0  0
    1.3716   -0.0834    0.0000 C   0  0  0  0  0  0  0  0  0  0  0  0
   -1.1840   -1.5593    0.0000 C   0  0  0  0  0  0  0  0  0  0  0  0
    3.9603    0.0917    0.0000 C   0  0  0  0  0  0  0  0  0  0  0  0
   -2.0302   -2.0469    0.0000 C   0  0  0  0  0  0  0  0  0  0  0  0
   -3.7225   -2.0469    0.0000 C   0  0  0  0  0  0  0  0  0  0  0  0
    4.6483    0.7920    0.0000 O   0  0  0  0  0  0  0  0  0  0  0  0
    2.0719    1.5925    0.0000 C   0  0  1  0  0  0  0  0  0  0  0  0
    3.0222    1.3299    0.0000 C   0  0  0  0  0  0  0  0  0  0  0  0
   -1.1840    2.3719    0.0000 O   0  0  0  0  0  0  0  0  0  0  0  0
    3.0099    0.3542    0.0000 C   0  0  0  0  0  0  0  0  0  0  0  0
   -0.3210    1.8718    0.0000 C   0  0  0  0  0  0  0  0  0  0  0  0
   -4.5688   -0.5712    0.0000 C   0  0  0  0  0  0  0  0  0  0  0  0
   -4.5688   -1.5593    0.0000 C   0  0  1  0  0  0  0  0  0  0  0  0
   -2.8722    0.4085    0.0000 C   0  0  0  0  0  0  0  0  0  0  0  0
    4.2103   -0.8462    0.0000 O   0  0  0  0  0  0  0  0  0  0  0  0
   -5.4235   -2.0426    0.0000 O   0  0  0  0  0  0  0  0  0  0  0  0
    2.3219    2.5429    0.0000 C   0  0  0  0  0  0  0  0  0  0  0  0
    5.1693   -1.1045    0.0000 C   0  0  0  0  0  0  0  0  0  0  0  0
    5.4235   -2.0594    0.0000 C   0  0  0  0  0  0  0  0  0  0  0  0
    2.2219    0.4085    0.0000 H   0  0  0  0  0  0  0  0  0  0  0  0
   -1.1840    0.4085    0.0000 H   0  0  0  0  0  0  0  0  0  0  0  0
    1.2172    2.0802    0.0000 H   0  0  0  0  0  0  0  0  0  0  0  0
   -2.8722   -2.5429    0.0000 H   0  0  0  0  0  0  0  0  0  0  0  0
   -2.0302   -1.0671    0.0000 H   0  0  0  0  0  0  0  0  0  0  0  0
  2  7  1  0  0  0  0
  3  1  1  0  0  0  0
  4  2  1  0  0  0  0
  5  3  1  0  0  0  0
  6  1  1  0  0  0  0
  7  6  1  0  0  0  0
  8  1  1  0  0  0  0
  9  4  1  0  0  0  0
 10  3  1  0  0  0  0
 11  4  1  0  0  0  0
 12  8  1  0  0  0  0
 13  5  1  0  0  0  0
 14 21  1  0  0  0  0
 15 13  1  0  0  0  0
 16  9  1  0  0  0  0
 17 14  2  0  0  0  0
 18  8  1  0  0  0  0
 19 18  1  0  0  0  0
  6 20  1  6  0  0  0
 21 19  1  0  0  0  0
  1 22  1  0  0  0  0
 23 11  1  0  0  0  0
 24 23  1  0  0  0  0
  4 25  1  0  0  0  0
 26 14  1  0  0  0  0
 24 27  1  6  0  0  0
 28 18  1  0  0  0  0
 29 26  1  0  0  0  0
 30 29  1  0  0  0  0
  8 31  1  6  0  0  0
  5 32  1  0  0  0  0
 18 33  1  1  0  0  0
  9 34  1  0  0  0  0
  2 35  1  6  0  0  0
 12 10  1  0  0  0  0
  2  5  1  0  0  0  0
 15  9  1  0  0  0  0
 16 24  1  0  0  0  0
M  END
>  <IDNUMBER> (N105-0100)
N105-0100

>  <available> (N105-0100)
98

>  <H_acceptor> (N105-0100)
4

>  <H_donor> (N105-0100)
2

>  <B_rotN> (N105-0100)
8

>  <N_O> (N105-0100)
4

>  <logP> (N105-0100)
4.66

>  <logD> (N105-0100)
5

>  <logSw> (N105-0100)
-6.15

>  <PSA> (N105-0100)
66.76

>  <Chiral_centers> (N105-0100)
10

>  <Name> (N105-0100)
ethyl 4-{7,11-dihydroxy-9a,11a-dimethyl-hexadecahydro-1H-cyclopenta[a]phenanthren-1-yl}pentanoate

>  <Smile> (N105-0100)
CCOC(CCC(C1C2(C)C(O)CC3C(C2CC1)CCC1C3(C)CCC(C1)O)C)=O

>  <Collection> (N105-0100)
DC

>  <InChI Key> (N105-0100)
ZFVNCIMEWULGEX-CUVUXYNMSA-N

>  <PERCENTSP3> (N105-0100)
96.2

$$$$

  -ISIS-  -- StrEd -- 

 15 17  0  0  0  0  0  0  0  0999 V2000
    0.0021    0.5060    0.0000 C   0  0  0  0  0  0  0  0  0  0  0  0
   -0.8601   -0.0021    0.0000 C   0  0  0  0  0  0  0  0  0  0  0  0
    0.8683   -0.0021    0.0000 C   0  0  0  0  0  0  0  0  0  0  0  0
    0.0021   -1.5055    0.0000 O   0  0  0  0  0  0  0  0  0  0  0  0
   -0.8683   -1.0016    0.0000 C   0  0  0  0  0  0  0  0  0  0  0  0
    0.8683   -1.0016    0.0000 C   0  0  0  0  0  0  0  0  0  0  0  0
    0.0021    1.5055    0.0000 O   0  0  0  0  0  0  0  0  0  0  0  0
    1.7305    0.4977    0.0000 C   0  0  0  0  0  0  0  0  0  0  0  0
   -1.7304    0.4977    0.0000 C   0  0  0  0  0  0  0  0  0  0  0  0
   -1.7304   -1.5055    0.0000 C   0  0  0  0  0  0  0  0  0  0  0  0
    1.7305   -1.5013    0.0000 C   0  0  0  0  0  0  0  0  0  0  0  0
   -2.5925   -0.0021    0.0000 C   0  0  0  0  0  0  0  0  0  0  0  0
    2.5925    0.0062    0.0000 C   0  0  0  0  0  0  0  0  0  0  0  0
    2.5925   -1.0016    0.0000 C   0  0  0  0  0  0  0  0  0  0  0  0
   -2.5925   -1.0058    0.0000 C   0  0  0  0  0  0  0  0  0  0  0  0
  2  1  1  0  0  0  0
  3  1  1  0  0  0  0
  4  6  1  0  0  0  0
  5  2  1  0  0  0  0
  6  3  2  0  0  0  0
  7  1  2  0  0  0  0
  8  3  1  0  0  0  0
  9  2  2  0  0  0  0
 10  5  2  0  0  0  0
 11  6  1  0  0  0  0
 12  9  1  0  0  0  0
 13  8  2  0  0  0  0
 14 13  1  0  0  0  0
 15 12  2  0  0  0  0
  4  5  1  0  0  0  0
 14 11  2  0  0  0  0
 15 10  1  0  0  0  0
M  END
>  <IDNUMBER> (N105-0092)
N105-0092

>  <available> (N105-0092)
118

>  <H_acceptor> (N105-0092)
2

>  <H_donor> (N105-0092)
0

>  <B_rotN> (N105-0092)
0

>  <N_O> (N105-0092)
2

>  <logP> (N105-0092)
3.09

>  <logD> (N105-0092)
3.39

>  <logSw> (N105-0092)
-5.59

>  <PSA> (N105-0092)
26.3

>  <Chiral_centers> (N105-0092)
0

>  <Name> (N105-0092)
9H-xanthen-9-one

>  <Smile> (N105-0092)
c1cc2c(C(=O)c3c(O2)cccc3)cc1

>  <Collection> (N105-0092)
DC

>  <InChI Key> (N105-0092)
JNELGWHKGNBSMD-UHFFFAOYSA-N

>  <PERCENTSP3> (N105-0092)
0

$$$$

  -ISIS-  -- StrEd -- 

 24 26  0  0  0  0  0  0  0  0999 V2000
    0.2170   -0.5260    0.0000 S   0  0  0  0  0  0  0  0  0  0  0  0
   -0.0956   -1.4816    0.0000 N   0  0  0  0  0  0  0  0  0  0  0  0
    0.5198    0.4278    0.0000 C   0  0  0  0  0  0  0  0  0  0  0  0
    0.4903   -2.2941    0.0000 C   0  0  0  0  0  0  0  0  0  0  0  0
    1.4896    0.6395    0.0000 C   0  0  0  0  0  0  0  0  0  0  0  0
   -0.1519    1.1636    0.0000 C   0  0  0  0  0  0  0  0  0  0  0  0
    0.1509    2.1138    0.0000 C   0  0  0  0  0  0  0  0  0  0  0  0
    1.7977    1.5922    0.0000 C   0  0  0  0  0  0  0  0  0  0  0  0
    1.1261    2.3308    0.0000 C   0  0  0  0  0  0  0  0  0  0  0  0
   -1.0467   -1.7896    0.0000 C   0  0  0  0  0  0  0  0  0  0  0  0
   -0.0956   -3.0971    0.0000 O   0  0  0  0  0  0  0  0  0  0  0  0
   -1.0467   -2.7899    0.0000 C   0  0  0  0  0  0  0  0  0  0  0  0
    1.1608   -0.8341    0.0000 O   0  0  0  0  0  0  0  0  0  0  0  0
   -0.7421   -0.2179    0.0000 O   0  0  0  0  0  0  0  0  0  0  0  0
    1.4896   -2.2996    0.0000 O   0  0  0  0  0  0  0  0  0  0  0  0
    2.1621   -0.1027    0.0000 F   0  0  0  0  0  0  0  0  0  0  0  0
   -1.1360    0.9529    0.0000 F   0  0  0  0  0  0  0  0  0  0  0  0
   -0.5198    2.8560    0.0000 F   0  0  0  0  0  0  0  0  0  0  0  0
    2.7764    1.8146    0.0000 F   0  0  0  0  0  0  0  0  0  0  0  0
    1.4288    3.2900    0.0000 F   0  0  0  0  0  0  0  0  0  0  0  0
   -1.9084   -1.2895    0.0000 C   0  0  0  0  0  0  0  0  0  0  0  0
   -1.9084   -3.2900    0.0000 C   0  0  0  0  0  0  0  0  0  0  0  0
   -2.7764   -1.7896    0.0000 C   0  0  0  0  0  0  0  0  0  0  0  0
   -2.7764   -2.7899    0.0000 C   0  0  0  0  0  0  0  0  0  0  0  0
  2  1  1  0  0  0  0
  3  1  1  0  0  0  0
  4  2  1  0  0  0  0
  5  3  2  0  0  0  0
  6  3  1  0  0  0  0
  7  6  2  0  0  0  0
  8  5  1  0  0  0  0
  9  7  1  0  0  0  0
 10  2  1  0  0  0  0
 11  4  1  0  0  0  0
 12 10  1  0  0  0  0
 13  1  2  0  0  0  0
 14  1  2  0  0  0  0
 15  4  2  0  0  0  0
 16  5  1  0  0  0  0
 17  6  1  0  0  0  0
 18  7  1  0  0  0  0
 19  8  1  0  0  0  0
 20  9  1  0  0  0  0
 21 10  2  0  0  0  0
 22 12  2  0  0  0  0
 23 21  1  0  0  0  0
 24 23  2  0  0  0  0
 11 12  1  0  0  0  0
  9  8  2  0  0  0  0
 24 22  1  0  0  0  0
M  END
>  <IDNUMBER> (N094-0010)
N094-0010

>  <available> (N094-0010)
109

>  <H_acceptor> (N094-0010)
9

>  <H_donor> (N094-0010)
0

>  <B_rotN> (N094-0010)
2

>  <N_O> (N094-0010)
5

>  <logP> (N094-0010)
3.72

>  <logD> (N094-0010)
0.38

>  <logSw> (N094-0010)
-2.44

>  <PSA> (N094-0010)
63.68

>  <Chiral_centers> (N094-0010)
0

>  <Name> (N094-0010)
3-(2,3,4,5,6-pentafluorobenzenesulfonyl)-2,3-dihydro-1,3-benzoxazol-2-one

>  <Smile> (N094-0010)
c1cc2c(N(S(=O)=Oc3c(c(F)c(c(c3F)F)F)F)C(O2)=O)cc1

>  <Collection> (N094-0010)
NC

>  <InChI Key> (N094-0010)
GOSKCHLRVWOQGP-UHFFFAOYSA-N

>  <PERCENTSP3> (N094-0010)
0

$$$$

  -ISIS-  -- StrEd -- 

 34 38  0  0  0  0  0  0  0  0999 V2000
    0.2583    1.0924    0.0000 C   0  0  0  0  0  0  0  0  0  0  0  0
    1.0329   -0.2535    0.0000 C   0  0  1  0  0  0  0  0  0  0  0  0
    0.2583    0.1835    0.0000 C   0  0  2  0  0  0  0  0  0  0  0  0
    1.7926    1.0924    0.0000 C   0  0  2  0  0  0  0  0  0  0  0  0
   -0.5416   -0.2535    0.0000 N   0  0  0  0  0  0  0  0  0  0  0  0
    1.0329    1.5343    0.0000 C   0  0  0  0  0  0  0  0  0  0  0  0
    1.7926    0.1835    0.0000 C   0  0  1  0  0  0  0  0  0  0  0  0
   -1.3162    0.1835    0.0000 C   0  0  0  0  0  0  0  0  0  0  0  0
   -1.3162    1.0924    0.0000 C   0  0  0  0  0  0  0  0  0  0  0  0
    1.0081    2.5078    0.0000 N   0  0  0  0  0  0  0  0  0  0  0  0
    1.0329   -1.6039    0.0000 C   0  0  0  0  0  0  0  0  0  0  0  0
   -0.5165    1.5542    0.0000 C   0  0  0  0  0  0  0  0  0  0  0  0
    2.7611   -0.4470    0.0000 O   0  0  0  0  0  0  0  0  0  0  0  0
   -2.0908   -0.2535    0.0000 C   0  0  0  0  0  0  0  0  0  0  0  0
    2.6418    1.5443    0.0000 C   0  0  0  0  0  0  0  0  0  0  0  0
   -2.0908    1.5343    0.0000 C   0  0  0  0  0  0  0  0  0  0  0  0
    3.7987   -0.2087    0.0000 C   0  0  0  0  0  0  0  0  0  0  0  0
   -0.4716    2.5575    0.0000 C   0  0  0  0  0  0  0  0  0  0  0  0
    1.0329    0.7199    0.0000 O   0  0  0  0  0  0  0  0  0  0  0  0
    2.6418    2.4978    0.0000 C   0  0  0  0  0  0  0  0  0  0  0  0
    0.1987   -2.0907    0.0000 O   0  0  0  0  0  0  0  0  0  0  0  0
    4.6778   -0.7199    0.0000 O   0  0  0  0  0  0  0  0  0  0  0  0
    2.7859    0.6007    0.0000 C   0  0  0  0  0  0  0  0  0  0  0  0
   -0.5416   -1.2067    0.0000 C   0  0  0  0  0  0  0  0  0  0  0  0
   -2.8655    0.1835    0.0000 C   0  0  0  0  0  0  0  0  0  0  0  0
    1.8175    2.9846    0.0000 C   0  0  0  0  0  0  0  0  0  0  0  0
   -2.8655    1.0924    0.0000 C   0  0  0  0  0  0  0  0  0  0  0  0
    2.0064   -1.9816    0.0000 O   0  0  0  0  0  0  0  0  0  0  0  0
   -3.6895   -0.2780    0.0000 O   0  0  0  0  0  0  0  0  0  0  0  0
    4.4890    0.5315    0.0000 C   0  0  0  0  0  0  0  0  0  0  0  0
    2.0458   -2.9846    0.0000 C   0  0  0  0  0  0  0  0  0  0  0  0
   -4.6778    0.2582    0.0000 C   0  0  0  0  0  0  0  0  0  0  0  0
    3.5802    1.2117    0.0000 C   0  0  0  0  0  0  0  0  0  0  0  0
    0.2583   -0.8144    0.0000 H   0  0  0  0  0  0  0  0  0  0  0  0
  2  3  1  0  0  0  0
  3  1  1  0  0  0  0
  6  4  1  0  0  0  0
  5  3  1  0  0  0  0
  6  1  1  0  0  0  0
  7  4  1  0  0  0  0
  8  9  2  0  0  0  0
  1  9  1  0  0  0  0
 10  6  1  0  0  0  0
  2 11  1  6  0  0  0
 12  1  1  0  0  0  0
  7 13  1  1  0  0  0
 14  8  1  0  0  0  0
 15  4  1  0  0  0  0
 16  9  1  0  0  0  0
 17 13  1  0  0  0  0
 18 12  1  0  0  0  0
  2 19  1  1  0  0  0
 20 26  1  0  0  0  0
 21 11  2  0  0  0  0
 22 17  2  0  0  0  0
  4 23  1  6  0  0  0
 24  5  1  0  0  0  0
 25 27  1  0  0  0  0
 26 10  1  0  0  0  0
 27 16  2  0  0  0  0
 28 11  1  0  0  0  0
 29 25  1  0  0  0  0
 30 17  1  0  0  0  0
 31 28  1  0  0  0  0
 32 29  1  0  0  0  0
 33 23  1  0  0  0  0
  3 34  1  1  0  0  0
 18 10  1  0  0  0  0
  8  5  1  0  0  0  0
  2  7  1  0  0  0  0
 14 25  2  0  0  0  0
 20 15  2  0  0  0  0
M  END
>  <IDNUMBER> (0080-0008)
0080-0008

>  <available> (0080-0008)
381

>  <H_acceptor> (0080-0008)
6

>  <H_donor> (0080-0008)
1

>  <B_rotN> (0080-0008)
3

>  <N_O> (0080-0008)
8

>  <logP> (0080-0008)
1.59

>  <logD> (0080-0008)
0.48

>  <logSw> (0080-0008)
-0.64

>  <PSA> (0080-0008)
88.54

>  <Chiral_centers> (0080-0008)
6

>  <Name> (0080-0008)
methyl (3aR,4R,5S,5aR)-4-(acetyloxy)-3a-ethyl-5-hydroxy-8-methoxy-6-methyl-3a,4,5,5a,6,11,12,13a-octahydro-1H-indolizino[8,1-cd]carbazole-5-carboxylate

>  <Smile> (0080-0008)
CCC12C=CCN3C1C1(CC3)c3c(N(C1C(C2OC(=O)C)(O)C(=O)OC)C)cc(cc3)OC

>  <Collection> (0080-0008)
NC

>  <InChI Key> (0080-0008)
CXBGOBGJHGGWIE-ZEVMZYBXSA-N

>  <PERCENTSP3> (0080-0008)
60

$$$$

  -ISIS-  -- StrEd -- 

 26 30  0  0  0  0  0  0  0  0999 V2000
    1.7806   -0.4985    0.0000 C   0  0  0  0  0  0  0  0  0  0  0  0
   -0.8546    0.9971    0.0000 C   0  0  0  0  0  0  0  0  0  0  0  0
    0.0000    0.4985    0.0000 C   0  0  0  0  0  0  0  0  0  0  0  0
    2.6352   -0.9971    0.0000 C   0  0  0  0  0  0  0  0  0  0  0  0
    0.8546   -0.9971    0.0000 C   0  0  0  0  0  0  0  0  0  0  0  0
   -0.8546    1.9941    0.0000 C   0  0  0  0  0  0  0  0  0  0  0  0
   -1.7094    0.4985    0.0000 C   0  0  0  0  0  0  0  0  0  0  0  0
   -2.6352    0.9971    0.0000 C   0  0  0  0  0  0  0  0  0  0  0  0
   -2.6352    1.9941    0.0000 C   0  0  0  0  0  0  0  0  0  0  0  0
    0.0000   -0.4985    0.0000 C   0  0  0  0  0  0  0  0  0  0  0  0
    0.8546    0.9971    0.0000 N   0  0  0  0  0  0  0  0  0  0  0  0
   -1.7094    2.4927    0.0000 C   0  0  0  0  0  0  0  0  0  0  0  0
    1.7806    0.4985    0.0000 C   0  0  0  0  0  0  0  0  0  0  0  0
    2.6352   -1.9941    0.0000 C   0  0  0  0  0  0  0  0  0  0  0  0
    3.5610   -0.7120    0.0000 O   0  0  0  0  0  0  0  0  0  0  0  0
   -3.4898    0.6410    0.0000 O   0  0  0  0  0  0  0  0  0  0  0  0
   -3.5610    2.2792    0.0000 O   0  0  0  0  0  0  0  0  0  0  0  0
    3.5610   -2.2789    0.0000 O   0  0  0  0  0  0  0  0  0  0  0  0
    4.1308   -1.4956    0.0000 C   0  0  0  0  0  0  0  0  0  0  0  0
   -4.1308    1.4244    0.0000 C   0  0  0  0  0  0  0  0  0  0  0  0
   -0.8546   -0.0000    0.0000 O   0  0  0  0  0  0  0  0  0  0  0  0
    0.8546   -1.9941    0.0000 C   0  0  0  0  0  0  0  0  0  0  0  0
    0.0000    2.4927    0.0000 C   0  0  0  0  0  0  0  0  0  0  0  0
    1.7806   -2.4927    0.0000 C   0  0  0  0  0  0  0  0  0  0  0  0
    0.8546    1.9941    0.0000 C   0  0  0  0  0  0  0  0  0  0  0  0
    1.7806    1.4897    0.0000 C   0  0  0  0  0  0  0  0  0  0  0  0
  2  3  1  0  0  0  0
  3 10  1  0  0  0  0
  4  1  1  0  0  0  0
  5  1  2  0  0  0  0
  6 23  1  0  0  0  0
  7  2  2  0  0  0  0
  8  7  1  0  0  0  0
  9 12  1  0  0  0  0
 10  5  1  0  0  0  0
 11 13  1  0  0  0  0
 12  6  2  0  0  0  0
 13  1  1  0  0  0  0
 14  4  2  0  0  0  0
 15  4  1  0  0  0  0
 16  8  1  0  0  0  0
 17  9  1  0  0  0  0
 18 14  1  0  0  0  0
 19 15  1  0  0  0  0
 20 16  1  0  0  0  0
 21  3  2  0  0  0  0
 22  5  1  0  0  0  0
 23 25  1  0  0  0  0
 24 22  2  0  0  0  0
 25 11  1  0  0  0  0
 26 11  1  0  0  0  0
 24 14  1  0  0  0  0
 19 18  1  0  0  0  0
  6  2  1  0  0  0  0
  8  9  2  0  0  0  0
 20 17  1  0  0  0  0
M  END
>  <IDNUMBER> (4185-0040)
4185-0040

>  <available> (4185-0040)
2

>  <H_acceptor> (4185-0040)
5

>  <H_donor> (4185-0040)
0

>  <B_rotN> (4185-0040)
0

>  <N_O> (4185-0040)
6

>  <logP> (4185-0040)
2.87

>  <logD> (4185-0040)
0.33

>  <logSw> (4185-0040)
-0.71

>  <PSA> (4185-0040)
57.23

>  <Chiral_centers> (4185-0040)
0

>  <Name> (4185-0040)
7-methyl-6,8,9,16-tetrahydrodi[1,3]benzodioxolo[4,5-c:5,6-g]azecin-15(7H)-one

>  <Smile> (4185-0040)
CN1Cc2c(ccc3c2OCO3)CC(c2c(CC1)cc1c(c2)OCO1)=O

>  <Collection> (4185-0040)
NC

>  <InChI Key> (4185-0040)
GPTFURBXHJWNHR-UHFFFAOYSA-N

>  <PERCENTSP3> (4185-0040)
35

$$$$

  -ISIS-  -- StrEd -- 

 18 20  0  0  0  0  0  0  0  0999 V2000
   -0.3200   -0.4936    0.0000 C   0  0  0  0  0  0  0  0  0  0  0  0
    0.5424   -1.0088    0.0000 N   0  0  0  0  0  0  0  0  0  0  0  0
    1.4049    0.5014    0.0000 C   0  0  0  0  0  0  0  0  0  0  0  0
    1.4049   -0.4936    0.0000 C   0  0  0  0  0  0  0  0  0  0  0  0
   -0.3200    0.5014    0.0000 C   0  0  0  0  0  0  0  0  0  0  0  0
    0.5424    1.0049    0.0000 C   0  0  0  0  0  0  0  0  0  0  0  0
   -1.1708   -1.0088    0.0000 C   0  0  0  0  0  0  0  0  0  0  0  0
   -1.1708    1.0049    0.0000 C   0  0  0  0  0  0  0  0  0  0  0  0
    2.3610   -0.8097    0.0000 O   0  0  0  0  0  0  0  0  0  0  0  0
    2.3610    0.8175    0.0000 C   0  0  0  0  0  0  0  0  0  0  0  0
   -2.0527   -0.4936    0.0000 C   0  0  0  0  0  0  0  0  0  0  0  0
    2.9308    0.0136    0.0000 C   0  0  0  0  0  0  0  0  0  0  0  0
   -2.0527    0.5014    0.0000 C   0  0  0  0  0  0  0  0  0  0  0  0
    0.5424    2.0079    0.0000 O   0  0  0  0  0  0  0  0  0  0  0  0
   -1.1708   -2.0000    0.0000 O   0  0  0  0  0  0  0  0  0  0  0  0
   -2.9308   -1.0088    0.0000 O   0  0  0  0  0  0  0  0  0  0  0  0
   -0.3200   -2.4956    0.0000 C   0  0  0  0  0  0  0  0  0  0  0  0
    1.4049    2.4956    0.0000 C   0  0  0  0  0  0  0  0  0  0  0  0
  2  1  1  0  0  0  0
  3  6  2  0  0  0  0
  4  2  2  0  0  0  0
  5  1  2  0  0  0  0
  6  5  1  0  0  0  0
  7  1  1  0  0  0  0
  8  5  1  0  0  0  0
  9  4  1  0  0  0  0
 10  3  1  0  0  0  0
 11  7  2  0  0  0  0
 12  9  1  0  0  0  0
 13 11  1  0  0  0  0
 14  6  1  0  0  0  0
 15  7  1  0  0  0  0
 16 11  1  0  0  0  0
 17 15  1  0  0  0  0
 18 14  1  0  0  0  0
  4  3  1  0  0  0  0
  8 13  2  0  0  0  0
 10 12  2  0  0  0  0
M  END
>  <IDNUMBER> (N039-0019)
N039-0019

>  <available> (N039-0019)
84

>  <H_acceptor> (N039-0019)
5

>  <H_donor> (N039-0019)
1

>  <B_rotN> (N039-0019)
3

>  <N_O> (N039-0019)
5

>  <logP> (N039-0019)
1.52

>  <logD> (N039-0019)
2.35

>  <logSw> (N039-0019)
-3.45

>  <PSA> (N039-0019)
64.72

>  <Chiral_centers> (N039-0019)
0

>  <Name> (N039-0019)
4,8-dimethoxyfuro[2,3-b]quinolin-7-ol

>  <Smile> (N039-0019)
COc1c2C=COc2[nH0]c2c(c(ccc12)O)OC

>  <Collection> (N039-0019)
NC

>  <InChI Key> (N039-0019)
LJKPBWHZRNQEMO-UHFFFAOYSA-N

>  <PERCENTSP3> (N039-0019)
15.4

$$$$

  -ISIS-  -- StrEd -- 

 15 17  0  0  0  0  0  0  0  0999 V2000
    0.9603    0.3870    0.0000 N   0  0  0  0  0  0  0  0  0  0  0  0
    0.9552   -0.6234    0.0000 C   0  0  0  0  0  0  0  0  0  0  0  0
    0.0855    0.8896    0.0000 C   0  0  0  0  0  0  0  0  0  0  0  0
    0.0855   -1.1212    0.0000 N   0  0  0  0  0  0  0  0  0  0  0  0
   -0.7741    0.3870    0.0000 C   0  0  0  0  0  0  0  0  0  0  0  0
   -0.7791   -0.6234    0.0000 C   0  0  0  0  0  0  0  0  0  0  0  0
    1.9104    0.6885    0.0000 C   0  0  0  0  0  0  0  0  0  0  0  0
    1.9104   -0.9350    0.0000 C   0  0  0  0  0  0  0  0  0  0  0  0
    2.4985   -0.1259    0.0000 C   0  0  0  0  0  0  0  0  0  0  0  0
    0.0855    1.8852    0.0000 O   0  0  0  0  0  0  0  0  0  0  0  0
   -1.6390    0.8846    0.0000 C   0  0  0  0  0  0  0  0  0  0  0  0
    2.2119   -1.8852    0.0000 O   0  0  0  0  0  0  0  0  0  0  0  0
   -1.6390   -1.1162    0.0000 C   0  0  0  0  0  0  0  0  0  0  0  0
   -2.4985    0.3769    0.0000 C   0  0  0  0  0  0  0  0  0  0  0  0
   -2.4985   -0.6184    0.0000 C   0  0  0  0  0  0  0  0  0  0  0  0
  2  1  1  0  0  0  0
  3  1  1  0  0  0  0
  4  2  2  0  0  0  0
  5  3  1  0  0  0  0
  6  5  1  0  0  0  0
  7  1  1  0  0  0  0
  8  2  1  0  0  0  0
  9  7  1  0  0  0  0
 10  3  2  0  0  0  0
 11  5  2  0  0  0  0
  8 12  1  0  0  0  0
 13  6  2  0  0  0  0
 14 11  1  0  0  0  0
 15 13  1  0  0  0  0
  8  9  1  0  0  0  0
  4  6  1  0  0  0  0
 14 15  2  0  0  0  0
M  END
>  <IDNUMBER> (N094-0017)
N094-0017

>  <available> (N094-0017)
514

>  <H_acceptor> (N094-0017)
3

>  <H_donor> (N094-0017)
1

>  <B_rotN> (N094-0017)
1

>  <N_O> (N094-0017)
4

>  <logP> (N094-0017)
0.38

>  <logD> (N094-0017)
-0.85

>  <logSw> (N094-0017)
0.59

>  <PSA> (N094-0017)
52.9

>  <Chiral_centers> (N094-0017)
1

>  <Name> (N094-0017)
3-hydroxy-1H,2H,3H,9H-pyrrolo[2,1-b]quinazolin-9-one

>  <Smile> (N094-0017)
c1cc2[nH0]c3[nH0](CCC3O)c(c2cc1)=O

>  <Collection> (N094-0017)
NC

>  <InChI Key> (N094-0017)
SDIVYZXRQHWCKF-UHFFFAOYSA-N

>  <PERCENTSP3> (N094-0017)
27.3

$$$$

  -ISIS-  -- StrEd -- 

 30 34  0  0  0  0  0  0  0  0999 V2000
    1.4189   -1.1385    0.0000 C   0  0  0  0  0  0  0  0  0  0  0  0
    1.4189   -0.1605    0.0000 C   0  0  0  0  0  0  0  0  0  0  0  0
   -1.1361   -1.6467    0.0000 C   0  0  0  0  0  0  0  0  0  0  0  0
    0.5561   -1.6467    0.0000 C   0  0  1  0  0  0  0  0  0  0  0  0
   -0.2733   -1.1385    0.0000 C   0  0  2  0  0  0  0  0  0  0  0  0
    2.6703    1.1146    0.0000 C   0  0  0  0  0  0  0  0  0  0  0  0
    2.3155    0.1032    0.0000 C   0  0  2  0  0  0  0  0  0  0  0  0
    2.0279    1.9343    0.0000 C   0  0  0  0  0  0  0  0  0  0  0  0
   -1.1361   -2.6102    0.0000 C   0  0  0  0  0  0  0  0  0  0  0  0
    2.6703    2.8548    0.0000 C   0  0  0  0  0  0  0  0  0  0  0  0
    2.3155   -1.4262    0.0000 C   0  0  0  0  0  0  0  0  0  0  0  0
    0.5561    0.3235    0.0000 C   0  0  0  0  0  0  0  0  0  0  0  0
   -0.2733   -0.1605    0.0000 C   0  0  0  0  0  0  0  0  0  0  0  0
    3.6817    2.4857    0.0000 O   0  0  0  0  0  0  0  0  0  0  0  0
    2.8764   -0.6544    0.0000 C   0  0  0  0  0  0  0  0  0  0  0  0
   -2.0134   -1.1385    0.0000 C   0  0  0  0  0  0  0  0  0  0  0  0
    0.5561   -2.6102    0.0000 C   0  0  0  0  0  0  0  0  0  0  0  0
    3.6817    1.4502    0.0000 C   0  0  0  0  0  0  0  0  0  0  0  0
   -0.2733   -3.0849    0.0000 C   0  0  0  0  0  0  0  0  0  0  0  0
   -2.0134   -3.0849    0.0000 C   0  0  0  0  0  0  0  0  0  0  0  0
    2.3155    3.8759    0.0000 O   0  0  0  0  0  0  0  0  0  0  0  0
    1.4189   -2.2219    0.0000 O   0  0  0  0  0  0  0  0  0  0  0  0
    1.4189    0.8270    0.0000 C   0  0  0  0  0  0  0  0  0  0  0  0
   -2.7948   -1.6467    0.0000 C   0  0  0  0  0  0  0  0  0  0  0  0
   -2.7948   -2.6102    0.0000 C   0  0  0  0  0  0  0  0  0  0  0  0
   -1.1361   -0.6544    0.0000 C   0  0  0  0  0  0  0  0  0  0  0  0
   -3.6817   -3.1280    0.0000 O   0  0  0  0  0  0  0  0  0  0  0  0
   -1.1361   -3.8759    0.0000 H   0  0  0  0  0  0  0  0  0  0  0  0
    0.5561   -0.7838    0.0000 H   0  0  0  0  0  0  0  0  0  0  0  0
   -0.2733   -2.0829    0.0000 H   0  0  0  0  0  0  0  0  0  0  0  0
  2  1  1  0  0  0  0
  3  5  1  0  0  0  0
  4  1  1  0  0  0  0
  5  4  1  0  0  0  0
  7  6  1  6  0  0  0
  7  2  1  0  0  0  0
  8  6  2  0  0  0  0
  9 19  1  0  0  0  0
 10  8  1  0  0  0  0
 11  1  1  0  0  0  0
 12  2  1  0  0  0  0
 13  5  1  0  0  0  0
 14 18  1  0  0  0  0
 15 11  1  0  0  0  0
 16  3  1  0  0  0  0
 17  4  1  0  0  0  0
 18  6  1  0  0  0  0
 19 17  1  0  0  0  0
 20  9  1  0  0  0  0
 21 10  2  0  0  0  0
  1 22  1  0  0  0  0
  2 23  1  0  0  0  0
 24 16  1  0  0  0  0
 25 20  1  0  0  0  0
  3 26  1  0  0  0  0
 25 27  1  0  0  0  0
  9 28  1  0  0  0  0
  4 29  1  1  0  0  0
  5 30  1  6  0  0  0
  7 15  1  0  0  0  0
 13 12  1  0  0  0  0
  9  3  1  0  0  0  0
 10 14  1  0  0  0  0
 25 24  1  0  0  0  0
M  END
>  <IDNUMBER> (0449-0104)
0449-0104

>  <available> (0449-0104)
813

>  <H_acceptor> (0449-0104)
4

>  <H_donor> (0449-0104)
2

>  <B_rotN> (0449-0104)
3

>  <N_O> (0449-0104)
4

>  <logP> (0449-0104)
3.27

>  <logD> (0449-0104)
2.64

>  <logSw> (0449-0104)
-3.86

>  <PSA> (0449-0104)
66.76

>  <Chiral_centers> (0449-0104)
8

>  <Name> (0449-0104)
4-{3a,7-dihydroxy-9a,11a-dimethyl-hexadecahydro-1H-cyclopenta[a]phenanthren-1-yl}-2,5-dihydrofuran-2-one

>  <Smile> (0449-0104)
OC1CC2C(C3C(C4(O)CCC(C4(C)CC3)C3=CC(OC3)=O)CC2)(C)CC1

>  <Collection> (0449-0104)
DC

>  <InChI Key> (0449-0104)
XZTUSOXSLKTKJQ-TYRRRTRBSA-N

>  <PERCENTSP3> (0449-0104)
87

$$$$

  -ISIS-  -- StrEd -- 

 38 42  0  0  0  0  0  0  0  0999 V2000
    1.4073   -0.1199    0.0000 C   0  0  0  0  0  0  0  0  0  0  0  0
    0.6776   -1.3812    0.0000 C   0  0  1  0  0  0  0  0  0  0  0  0
    1.4073   -0.9643    0.0000 C   0  0  2  0  0  0  0  0  0  0  0  0
   -0.7923   -1.3812    0.0000 C   0  0  2  0  0  0  0  0  0  0  0  0
   -0.0521   -0.9643    0.0000 C   0  0  0  0  0  0  0  0  0  0  0  0
    0.6776    0.3388    0.0000 C   0  0  0  0  0  0  0  0  0  0  0  0
   -0.0521   -0.1199    0.0000 C   0  0  0  0  0  0  0  0  0  0  0  0
   -0.7923   -2.3299    0.0000 C   0  0  0  0  0  0  0  0  0  0  0  0
    2.3559    0.5369    0.0000 C   0  0  2  0  0  0  0  0  0  0  0  0
   -1.5741   -2.8094    0.0000 C   0  0  2  0  0  0  0  0  0  0  0  0
    3.2837    2.1110    0.0000 C   0  0  1  0  0  0  0  0  0  0  0  0
    2.3559    1.5897    0.0000 C   0  0  0  0  0  0  0  0  0  0  0  0
    3.2837    0.0052    0.0000 C   0  0  1  0  0  0  0  0  0  0  0  0
   -2.3247   -2.3299    0.0000 C   0  0  1  0  0  0  0  0  0  0  0  0
    0.6776   -2.3299    0.0000 C   0  0  0  0  0  0  0  0  0  0  0  0
    4.1698    2.7260    0.0000 C   0  0  0  0  0  0  0  0  0  0  0  0
   -1.5741   -0.9643    0.0000 C   0  0  0  0  0  0  0  0  0  0  0  0
    2.3559   -1.5897    0.0000 C   0  0  0  0  0  0  0  0  0  0  0  0
   -0.0521   -2.8094    0.0000 C   0  0  0  0  0  0  0  0  0  0  0  0
   -3.4505   -3.0179    0.0000 O   0  0  0  0  0  0  0  0  0  0  0  0
   -4.4096   -2.7781    0.0000 C   0  0  0  0  0  0  0  0  0  0  0  0
   -0.9278    0.3388    0.0000 O   0  0  0  0  0  0  0  0  0  0  0  0
    3.2837   -1.0685    0.0000 C   0  0  0  0  0  0  0  0  0  0  0  0
   -2.3247   -1.3812    0.0000 C   0  0  0  0  0  0  0  0  0  0  0  0
    4.2219    1.5897    0.0000 C   0  0  0  0  0  0  0  0  0  0  0  0
    4.2219    0.5369    0.0000 C   0  0  0  0  0  0  0  0  0  0  0  0
    4.1698    3.8623    0.0000 O   0  0  0  0  0  0  0  0  0  0  0  0
   -5.2123   -3.4245    0.0000 O   0  0  0  0  0  0  0  0  0  0  0  0
    0.6776   -0.5473    0.0000 C   0  0  0  0  0  0  0  0  0  0  0  0
   -0.7923   -0.5056    0.0000 C   0  0  0  0  0  0  0  0  0  0  0  0
    1.4282   -1.9754    0.0000 C   0  0  0  0  0  0  0  0  0  0  0  0
    5.2123    2.1110    0.0000 O   0  0  0  0  0  0  0  0  0  0  0  0
   -2.1162   -3.8623    0.0000 C   0  0  0  0  0  0  0  0  0  0  0  0
   -0.9278   -3.6955    0.0000 C   0  0  0  0  0  0  0  0  0  0  0  0
    2.3559    2.7052    0.0000 C   0  0  0  0  0  0  0  0  0  0  0  0
    4.3262   -0.6098    0.0000 C   0  0  0  0  0  0  0  0  0  0  0  0
   -4.6389   -1.8399    0.0000 C   0  0  0  0  0  0  0  0  0  0  0  0
    1.4803    1.1206    0.0000 H   0  0  0  0  0  0  0  0  0  0  0  0
  1  3  1  0  0  0  0
  1  6  2  0  0  0  0
  1  9  1  0  0  0  0
  2  3  1  0  0  0  0
  2 15  1  0  0  0  0
  2 29  1  1  0  0  0
  2  5  1  0  0  0  0
  3 18  1  0  0  0  0
  3 31  1  6  0  0  0
  4  5  1  0  0  0  0
  4  8  1  0  0  0  0
  4 17  1  0  0  0  0
  4 30  1  1  0  0  0
  5  7  1  0  0  0  0
  6  7  1  0  0  0  0
  7 22  2  0  0  0  0
  8 10  1  0  0  0  0
  8 19  1  0  0  0  0
  9 12  1  0  0  0  0
  9 13  1  0  0  0  0
  9 38  1  1  0  0  0
 10 33  1  1  0  0  0
 10 34  1  6  0  0  0
 10 14  1  0  0  0  0
 11 12  1  0  0  0  0
 11 16  1  1  0  0  0
 11 35  1  6  0  0  0
 11 25  1  0  0  0  0
 13 23  1  0  0  0  0
 13 26  1  0  0  0  0
 13 36  1  1  0  0  0
 14 24  1  0  0  0  0
 14 20  1  1  0  0  0
 15 19  1  0  0  0  0
 16 27  2  0  0  0  0
 16 32  1  0  0  0  0
 17 24  1  0  0  0  0
 18 23  1  0  0  0  0
 20 21  1  0  0  0  0
 21 28  2  0  0  0  0
 21 37  1  0  0  0  0
 25 26  1  0  0  0  0
M  END
>  <IDNUMBER> (N026-0109)
N026-0109

>  <available> (N026-0109)
157

>  <H_acceptor> (N026-0109)
5

>  <H_donor> (N026-0109)
1

>  <B_rotN> (N026-0109)
4

>  <N_O> (N026-0109)
5

>  <logP> (N026-0109)
5.76

>  <logD> (N026-0109)
7.42

>  <logSw> (N026-0109)
-6.68

>  <PSA> (N026-0109)
80.67

>  <Chiral_centers> (N026-0109)
9

>  <Name> (N026-0109)
10-(acetyloxy)-2,4a,6a,6b,9,9,12a-heptamethyl-13-oxo-1,2,3,4,4a,5,6,6a,6b,7,8,8a,9,10,11,12,12a,12b,13,14b-icosahydropicene-2-carboxylic acid

>  <Smile> (N026-0109)
CC(OC1C(C2C(C3C(C)(CC2)C2(C(C4CC(C)(C(=O)O)CCC4(CC2)C)=CC3=O)C)(C)CC1)(C)C)=O

>  <Collection> (N026-0109)
DC

>  <InChI Key> (N026-0109)
FTQDJVZNPJRVPG-DGWUYHICSA-N

>  <PERCENTSP3> (N026-0109)
84.4

$$$$

  -ISIS-  -- StrEd -- 

 69 77  0  0  0  0  0  0  0  0999 V2000
    5.9348    3.6215    0.0000 C   0  0  0  0  0  0  0  0  0  0  0  0
    5.9348    4.3014    0.0000 C   0  0  0  0  0  0  0  0  0  0  0  0
   -4.4055   -6.1427    0.0000 C   0  0  0  0  0  0  0  0  0  0  0  0
    4.8209    3.6215    0.0000 C   0  0  2  0  0  0  0  0  0  0  0  0
    4.2824    3.3286    0.0000 C   0  0  0  0  0  0  0  0  0  0  0  0
   -5.1230   -7.0967    0.0000 C   0  0  0  0  0  0  0  0  0  0  0  0
    5.4158    3.3286    0.0000 C   0  0  1  0  0  0  0  0  0  0  0  0
   -6.5302   -7.0967    0.0000 C   0  0  0  0  0  0  0  0  0  0  0  0
   -5.1230   -5.1889    0.0000 O   0  0  0  0  0  0  0  0  0  0  0  0
    6.5490    4.4902    0.0000 C   0  0  0  0  0  0  0  0  0  0  0  0
    5.4158    4.6034    0.0000 C   0  0  0  0  0  0  0  0  0  0  0  0
    6.8229    5.4158    0.0000 C   0  0  0  0  0  0  0  0  0  0  0  0
   -4.4055   -3.2626    0.0000 C   0  0  0  0  0  0  0  0  0  0  0  0
   -4.4055   -4.6885    0.0000 O   0  0  0  0  0  0  0  0  0  0  0  0
   -7.2099   -6.1427    0.0000 C   0  0  0  0  0  0  0  0  0  0  0  0
   -1.9500   -0.4108    0.0000 C   0  0  0  0  0  0  0  0  0  0  0  0
    0.3823    1.4021    0.0000 C   0  0  0  0  0  0  0  0  0  0  0  0
   -6.5302   -5.1889    0.0000 C   0  0  0  0  0  0  0  0  0  0  0  0
   -1.9500   -3.2626    0.0000 C   0  0  0  0  0  0  0  0  0  0  0  0
    0.3823   -0.4108    0.0000 C   0  0  0  0  0  0  0  0  0  0  0  0
    4.8209    4.3014    0.0000 C   0  0  0  0  0  0  0  0  0  0  0  0
    2.5543    1.4021    0.0000 C   0  0  0  0  0  0  0  0  0  0  0  0
   -2.5165   -2.4223    0.0000 O   0  0  0  0  0  0  0  0  0  0  0  0
   -0.2316    0.3823    0.0000 O   0  0  0  0  0  0  0  0  0  0  0  0
    1.9878    2.1295    0.0000 O   0  0  0  0  0  0  0  0  0  0  0  0
   -2.5165   -4.1030    0.0000 C   0  0  0  0  0  0  0  0  0  0  0  0
   -0.2316   -1.1567    0.0000 C   0  0  0  0  0  0  0  0  0  0  0  0
    1.9878    0.7036    0.0000 C   0  0  0  0  0  0  0  0  0  0  0  0
    6.2277    6.1429    0.0000 C   0  0  0  0  0  0  0  0  0  0  0  0
    4.2824    2.6769    0.0000 C   0  0  0  0  0  0  0  0  0  0  0  0
   -3.7915   -4.1030    0.0000 C   0  0  0  0  0  0  0  0  0  0  0  0
   -1.3645   -1.1567    0.0000 C   0  0  0  0  0  0  0  0  0  0  0  0
    0.9300    0.7036    0.0000 C   0  0  0  0  0  0  0  0  0  0  0  0
   -3.7915   -2.4223    0.0000 C   0  0  0  0  0  0  0  0  0  0  0  0
    6.5490    3.4421    0.0000 C   0  0  0  0  0  0  0  0  0  0  0  0
    0.9300    2.1295    0.0000 C   0  0  0  0  0  0  0  0  0  0  0  0
   -1.3645    0.3823    0.0000 C   0  0  0  0  0  0  0  0  0  0  0  0
    6.8229    6.9833    0.0000 C   0  0  0  0  0  0  0  0  0  0  0  0
    0.3823    0.4486    0.0000 O   0  0  0  0  0  0  0  0  0  0  0  0
   -1.9500   -1.7422    0.0000 O   0  0  0  0  0  0  0  0  0  0  0  0
    7.7294    6.6906    0.0000 O   0  0  0  0  0  0  0  0  0  0  0  0
    6.9361    3.9616    0.0000 C   0  0  0  0  0  0  0  0  0  0  0  0
    3.6499    3.6215    0.0000 C   0  0  0  0  0  0  0  0  0  0  0  0
    5.4158    2.6769    0.0000 C   0  0  0  0  0  0  0  0  0  0  0  0
    7.7294    5.7369    0.0000 C   0  0  0  0  0  0  0  0  0  0  0  0
    2.5543    2.3089    0.0000 O   0  0  0  0  0  0  0  0  0  0  0  0
    3.6499    2.3751    0.0000 C   0  0  0  0  0  0  0  0  0  0  0  0
    4.8209    2.3751    0.0000 C   0  0  0  0  0  0  0  0  0  0  0  0
    5.9348    1.6102    0.0000 O   0  0  0  0  0  0  0  0  0  0  0  0
    6.4825    7.9088    0.0000 O   0  0  0  0  0  0  0  0  0  0  0  0
    3.1208    2.6769    0.0000 C   0  0  0  0  0  0  0  0  0  0  0  0
   -5.1230   -7.9088    0.0000 O   0  0  0  0  0  0  0  0  0  0  0  0
   -6.4637   -6.0293    0.0000 O   0  0  0  0  0  0  0  0  0  0  0  0
   -7.1627   -7.6347    0.0000 O   0  0  0  0  0  0  0  0  0  0  0  0
    5.8691    6.5962    0.0000 C   0  0  0  0  0  0  0  0  0  0  0  0
    5.3684    5.6425    0.0000 O   0  0  0  0  0  0  0  0  0  0  0  0
    3.1208    3.3286    0.0000 C   0  0  0  0  0  0  0  0  0  0  0  0
   -3.7915   -5.3024    0.0000 O   0  0  0  0  0  0  0  0  0  0  0  0
    0.9965   -0.3448    0.0000 O   0  0  0  0  0  0  0  0  0  0  0  0
   -1.3645   -1.9691    0.0000 O   0  0  0  0  0  0  0  0  0  0  0  0
    4.2352    4.6034    0.0000 C   0  0  0  0  0  0  0  0  0  0  0  0
   -6.5490   -4.0085    0.0000 C   0  0  0  0  0  0  0  0  0  0  0  0
   -7.7294   -3.2439    0.0000 O   0  0  0  0  0  0  0  0  0  0  0  0
    0.8828    3.3286    0.0000 C   0  0  0  0  0  0  0  0  0  0  0  0
   -1.3645    1.4498    0.0000 C   0  0  0  0  0  0  0  0  0  0  0  0
   -3.7915   -1.1097    0.0000 C   0  0  0  0  0  0  0  0  0  0  0  0
    4.8491    2.8754    0.0000 H   0  0  0  0  0  0  0  0  0  0  0  0
    5.4158    4.0085    0.0000 H   0  0  0  0  0  0  0  0  0  0  0  0
    4.2824    1.2889    0.0000 H   0  0  0  0  0  0  0  0  0  0  0  0
  2  1  1  0  0  0  0
  3 14  1  0  0  0  0
  4  7  1  0  0  0  0
  5  4  1  0  0  0  0
  6  3  1  0  0  0  0
  7  1  1  0  0  0  0
  8  6  1  0  0  0  0
  9  3  1  0  0  0  0
 10  2  1  0  0  0  0
 11  2  1  0  0  0  0
 10 12  1  0  0  0  0
 13 31  1  0  0  0  0
 13 14  1  0  0  0  0
 15 18  1  0  0  0  0
 16 32  1  0  0  0  0
 17 33  1  0  0  0  0
 18  9  1  0  0  0  0
 19 40  1  0  0  0  0
 20 39  1  0  0  0  0
 21  4  1  0  0  0  0
 22 46  1  0  0  0  0
 23 19  1  0  0  0  0
 24 20  1  0  0  0  0
 25 22  1  0  0  0  0
 26 19  1  0  0  0  0
 27 20  1  0  0  0  0
 28 22  1  0  0  0  0
 29 12  2  0  0  0  0
 30 48  1  0  0  0  0
 31 26  1  0  0  0  0
 32 27  1  0  0  0  0
 33 28  1  0  0  0  0
 34 23  1  0  0  0  0
 35  1  1  0  0  0  0
 36 25  1  0  0  0  0
 37 24  1  0  0  0  0
 38 29  1  0  0  0  0
 17 39  1  0  0  0  0
 16 40  1  0  0  0  0
 41 45  1  0  0  0  0
 42 35  1  0  0  0  0
 43  5  1  0  0  0  0
 44  7  1  0  0  0  0
 45 12  1  0  0  0  0
 51 46  1  0  0  0  0
 47 30  1  0  0  0  0
 48 44  1  0  0  0  0
  1 49  1  0  0  0  0
 50 38  2  0  0  0  0
 51 47  1  0  0  0  0
  6 52  1  0  0  0  0
  8 53  1  0  0  0  0
 15 54  1  0  0  0  0
  2 55  1  0  0  0  0
 11 56  1  0  0  0  0
 57 43  1  0  0  0  0
 31 58  1  0  0  0  0
 33 59  1  0  0  0  0
 32 60  1  0  0  0  0
  5 61  1  0  0  0  0
 18 62  1  0  0  0  0
 63 62  1  0  0  0  0
 36 64  1  0  0  0  0
 37 65  1  0  0  0  0
 34 66  1  0  0  0  0
  4 67  1  6  0  0  0
  7 68  1  1  0  0  0
 30 69  1  0  0  0  0
 10 42  1  0  0  0  0
 21 11  1  0  0  0  0
 30  5  1  0  0  0  0
 51 57  1  0  0  0  0
 38 41  1  0  0  0  0
 17 36  1  0  0  0  0
 16 37  1  0  0  0  0
 13 34  1  0  0  0  0
 15  8  1  0  0  0  0
M  END
>  <IDNUMBER> (N045-0007)
N045-0007

>  <available> (N045-0007)
511

>  <H_acceptor> (N045-0007)
19

>  <H_donor> (N045-0007)
9

>  <B_rotN> (N045-0007)
19

>  <N_O> (N045-0007)
19

>  <logP> (N045-0007)
0.15

>  <logD> (N045-0007)
-0.73

>  <logSw> (N045-0007)
-5.11

>  <PSA> (N045-0007)
282.21

>  <Chiral_centers> (N045-0007)
26

>  <Name> (N045-0007)
4-(3a,11-dihydroxy-7-{[4-hydroxy-5-({4-hydroxy-5-[(4-hydroxy-6-methyl-5-{[3,4,5-trihydroxy-6-(hydroxymethyl)oxan-2-yl]oxy}oxan-2-yl)oxy]-6-methyloxan-2-yl}oxy)-6-methyloxan-2-yl]oxy}-9a,11a-dimethyl-h
exadecahydro-1H-cyclopenta[a]phenanthren-1-yl)-2,5-dihydrofuran-2-one

>  <Smile> (N045-0007)
CC1C(OC2C(C(O)C(C(O2)CO)O)O)C(CC(OC2C(OC(OC3C(OC(OC4CC5C(C6C(C7(O)CCC(C7(C)C(C6)O)C6=CC(OC6)=O)CC5)(C)CC4)CC3O)C)CC2O)C)O1)O

>  <Collection> (N045-0007)
DC

>  <InChI Key> (N045-0007)
OBATZBGFDSVCJD-VWDTUUJXSA-N

>  <PERCENTSP3> (N045-0007)
93.6

$$$$

  -ISIS-  -- StrEd -- 

 23 24  0  0  0  0  0  0  0  0999 V2000
   -1.2779   -0.3151    0.0000 C   0  0  1  0  0  0  0  0  0  0  0  0
   -1.2779   -1.3547    0.0000 C   0  0  2  0  0  0  0  0  0  0  0  0
   -0.3879    0.1930    0.0000 C   0  0  2  0  0  0  0  0  0  0  0  0
    0.5099   -0.3151    0.0000 C   0  0  1  0  0  0  0  0  0  0  0  0
   -2.1641   -1.8746    0.0000 C   0  0  2  0  0  0  0  0  0  0  0  0
   -0.3879   -1.8667    0.0000 C   0  0  0  0  0  0  0  0  0  0  0  0
   -0.4076    1.2130    0.0000 C   0  0  0  0  0  0  0  0  0  0  0  0
    0.5099   -1.3547    0.0000 C   0  0  0  0  0  0  0  0  0  0  0  0
    1.3608    1.2919    0.0000 C   0  0  2  0  0  0  0  0  0  0  0  0
    0.4825    1.7446    0.0000 C   0  0  0  0  0  0  0  0  0  0  0  0
   -2.1641    0.1930    0.0000 C   0  0  0  0  0  0  0  0  0  0  0  0
    1.3685   -0.7877    0.0000 O   0  0  0  0  0  0  0  0  0  0  0  0
   -1.2779    0.7128    0.0000 C   0  0  0  0  0  0  0  0  0  0  0  0
    1.3608    2.4062    0.0000 O   0  0  0  0  0  0  0  0  0  0  0  0
   -3.0620   -1.3547    0.0000 C   0  0  0  0  0  0  0  0  0  0  0  0
   -3.0620   -0.3151    0.0000 C   0  0  0  0  0  0  0  0  0  0  0  0
    0.5179    0.6655    0.0000 C   0  0  0  0  0  0  0  0  0  0  0  0
   -3.0541   -2.4062    0.0000 C   0  0  0  0  0  0  0  0  0  0  0  0
   -1.2940   -2.3788    0.0000 C   0  0  0  0  0  0  0  0  0  0  0  0
    2.1916    1.8197    0.0000 C   0  0  0  0  0  0  0  0  0  0  0  0
    1.3608    0.2993    0.0000 C   0  0  0  0  0  0  0  0  0  0  0  0
    3.0620    1.3547    0.0000 C   0  0  0  0  0  0  0  0  0  0  0  0
   -1.2779   -1.8470    0.0000 H   0  0  0  0  0  0  0  0  0  0  0  0
  2  1  1  0  0  0  0
  3  1  1  0  0  0  0
  4  3  1  0  0  0  0
  5  2  1  0  0  0  0
  6  2  1  0  0  0  0
  3  7  1  1  0  0  0
  8  4  1  0  0  0  0
  9 10  1  0  0  0  0
 10  7  1  0  0  0  0
 11  1  1  0  0  0  0
  4 12  1  6  0  0  0
  1 13  1  1  0  0  0
  9 14  1  1  0  0  0
 15 16  1  0  0  0  0
 16 11  1  0  0  0  0
  4 17  1  1  0  0  0
  5 18  1  1  0  0  0
  5 19  1  6  0  0  0
 20  9  1  0  0  0  0
  9 21  1  6  0  0  0
 22 20  1  0  0  0  0
  2 23  1  6  0  0  0
  5 15  1  0  0  0  0
  6  8  1  0  0  0  0
M  END
>  <IDNUMBER> (N007-0014)
N007-0014

>  <available> (N007-0014)
2

>  <H_acceptor> (N007-0014)
2

>  <H_donor> (N007-0014)
2

>  <B_rotN> (N007-0014)
6

>  <N_O> (N007-0014)
2

>  <logP> (N007-0014)
4.53

>  <logD> (N007-0014)
5.59

>  <logSw> (N007-0014)
-4.36

>  <PSA> (N007-0014)
40.46

>  <Chiral_centers> (N007-0014)
5

>  <Name> (N007-0014)
1-(3-hydroxy-3-methylpentyl)-2,5,5,8a-tetramethyl-decahydronaphthalen-2-ol

>  <Smile> (N007-0014)
CCC(CCC1C2(CCCC(C2CCC1(C)O)(C)C)C)(C)O

>  <Collection> (N007-0014)
DC

>  <InChI Key> (N007-0014)
VWPNQCLIQCRCCG-GRLGQGAKSA-N

>  <PERCENTSP3> (N007-0014)
100

$$$$

  -ISIS-  -- StrEd -- 

 41 48  0  0  0  0  0  0  0  0999 V2000
   -1.4251   -0.6505    0.0000 C   0  0  0  0  0  0  0  0  0  0  0  0
    0.9939   -1.4749    0.0000 C   0  0  0  0  0  0  0  0  0  0  0  0
    1.4710   -0.6238    0.0000 C   0  0  0  0  0  0  0  0  0  0  0  0
   -1.9096   -1.5016    0.0000 C   0  0  0  0  0  0  0  0  0  0  0  0
   -0.4521   -0.6505    0.0000 C   0  0  2  0  0  0  0  0  0  0  0  0
    0.0248   -1.4749    0.0000 C   0  0  1  0  0  0  0  0  0  0  0  0
    3.1727   -0.1088    0.0000 C   0  0  0  0  0  0  0  0  0  0  0  0
    2.4059   -0.8528    0.0000 C   0  0  0  0  0  0  0  0  0  0  0  0
   -2.3561    1.2000    0.0000 C   0  0  0  0  0  0  0  0  0  0  0  0
   -0.7727    0.4599    0.0000 C   0  0  0  0  0  0  0  0  0  0  0  0
    3.0353    0.8718    0.0000 C   0  0  0  0  0  0  0  0  0  0  0  0
   -1.3793    1.2840    0.0000 N   0  0  0  0  0  0  0  0  0  0  0  0
    4.0238    1.3756    0.0000 C   0  0  0  0  0  0  0  0  0  0  0  0
    1.6617   -2.1808    0.0000 C   0  0  0  0  0  0  0  0  0  0  0  0
    0.9482    0.2003    0.0000 C   0  0  0  0  0  0  0  0  0  0  0  0
   -1.9441    0.1850    0.0000 C   0  0  0  0  0  0  0  0  0  0  0  0
    0.0134    0.1850    0.0000 C   0  0  0  0  0  0  0  0  0  0  0  0
   -2.8981   -1.4823    0.0000 C   0  0  0  0  0  0  0  0  0  0  0  0
    4.7485    0.6048    0.0000 O   0  0  0  0  0  0  0  0  0  0  0  0
    2.5127   -1.7762    0.0000 C   0  0  0  0  0  0  0  0  0  0  0  0
   -0.4521   -2.3254    0.0000 C   0  0  0  0  0  0  0  0  0  0  0  0
   -1.3944   -2.3254    0.0000 C   0  0  0  0  0  0  0  0  0  0  0  0
    4.2183   -0.3187    0.0000 C   0  0  0  0  0  0  0  0  0  0  0  0
   -4.0885    1.2076    0.0000 C   0  0  0  0  0  0  0  0  0  0  0  0
   -3.9892    0.7345    0.0000 C   0  0  0  0  0  0  0  0  0  0  0  0
   -3.3100    2.6195    0.0000 C   0  0  0  0  0  0  0  0  0  0  0  0
   -3.1345    0.8147    0.0000 C   0  0  0  0  0  0  0  0  0  0  0  0
   -2.9895    0.4140    0.0000 C   0  0  0  0  0  0  0  0  0  0  0  0
   -2.3561    2.2532    0.0000 C   0  0  0  0  0  0  0  0  0  0  0  0
    4.2449    2.4746    0.0000 O   0  0  0  0  0  0  0  0  0  0  0  0
    0.4903   -2.3904    0.0000 O   0  0  0  0  0  0  0  0  0  0  0  0
   -4.7485    0.3949    0.0000 C   0  0  0  0  0  0  0  0  0  0  0  0
   -4.0807    2.2265    0.0000 C   0  0  0  0  0  0  0  0  0  0  0  0
   -3.9892    2.0051    0.0000 C   0  0  0  0  0  0  0  0  0  0  0  0
   -2.5317   -2.6195    0.0000 O   0  0  0  0  0  0  0  0  0  0  0  0
   -3.3481   -0.6964    0.0000 C   0  0  0  0  0  0  0  0  0  0  0  0
    1.9365    0.1850    0.0000 C   0  0  0  0  0  0  0  0  0  0  0  0
   -2.8712    0.1545    0.0000 C   0  0  0  0  0  0  0  0  0  0  0  0
   -4.3554   -0.7155    0.0000 O   0  0  0  0  0  0  0  0  0  0  0  0
    0.4254   -0.7307    0.0000 H   0  0  0  0  0  0  0  0  0  0  0  0
   -0.9099   -1.4749    0.0000 H   0  0  0  0  0  0  0  0  0  0  0  0
  2  6  1  0  0  0  0
  3 15  1  0  0  0  0
  4  1  1  0  0  0  0
  5  1  1  0  0  0  0
  6  5  1  0  0  0  0
  8  7  1  0  0  0  0
  8  3  1  0  0  0  0
  9 12  1  0  0  0  0
  1 10  1  0  0  0  0
 11  7  2  0  0  0  0
 12 10  2  0  0  0  0
 13 11  1  0  0  0  0
 14  2  1  0  0  0  0
 15 17  1  0  0  0  0
 16  1  1  0  0  0  0
 17  5  1  0  0  0  0
 18  4  1  0  0  0  0
 19 23  1  0  0  0  0
 20 14  1  0  0  0  0
 21  6  1  0  0  0  0
 22  4  1  0  0  0  0
 23  7  1  0  0  0  0
 24 27  1  0  0  0  0
 25 28  1  0  0  0  0
 26 29  1  0  0  0  0
  9 27  1  0  0  0  0
 28  9  1  0  0  0  0
 29  9  1  0  0  0  0
 30 13  2  0  0  0  0
  2 31  1  0  0  0  0
 32 25  1  0  0  0  0
 33 26  1  0  0  0  0
 34 26  1  0  0  0  0
  4 35  1  0  0  0  0
 36 38  1  0  0  0  0
  3 37  1  0  0  0  0
 38 16  1  0  0  0  0
 36 39  1  0  0  0  0
  6 40  1  1  0  0  0
  5 41  1  6  0  0  0
 22 21  1  0  0  0  0
 18 36  1  0  0  0  0
  3  2  1  0  0  0  0
  8 20  1  0  0  0  0
 25 34  1  0  0  0  0
 24 33  1  0  0  0  0
 32 24  1  0  0  0  0
 19 13  1  0  0  0  0
M  END
>  <IDNUMBER> (0449-0093)
0449-0093

>  <available> (0449-0093)
1

>  <H_acceptor> (0449-0093)
6

>  <H_donor> (0449-0093)
3

>  <B_rotN> (0449-0093)
6

>  <N_O> (0449-0093)
6

>  <logP> (0449-0093)
3.64

>  <logD> (0449-0093)
5.03

>  <logSw> (0449-0093)
-7.62

>  <PSA> (0449-0093)
99.35

>  <Chiral_centers> (0449-0093)
8

>  <Name> (0449-0093)
4-{9a-[(Z)-[(adamantan-1-yl)imino]methyl]-3a,5a,7-trihydroxy-11a-methyl-hexadecahydro-1H-cyclopenta[a]phenanthren-1-yl}-2,5-dihydrofuran-2-one

>  <Smile> (0449-0093)
OC1CC2(C(CC1)(C=NC13CC4CC(CC(C3)C4)C1)C1C(C3(O)CCC(C3(CC1)C)C1=CC(=O)OC1)CC2)O

>  <Collection> (0449-0093)
DC

>  <InChI Key> (0449-0093)
RPQWRIJQHPRPED-GDBWZDNUSA-N

>  <PERCENTSP3> (0449-0093)
87.9

$$$$

  -ISIS-  -- StrEd -- 

 26 29  0  0  0  0  0  0  0  0999 V2000
    1.9171    1.2451    0.0000 C   0  0  0  0  0  0  0  0  0  0  0  0
   -0.6719   -0.2489    0.0000 C   0  0  0  0  0  0  0  0  0  0  0  0
    2.8663    1.5459    0.0000 C   0  0  0  0  0  0  0  0  0  0  0  0
    1.9171    0.2491    0.0000 C   0  0  0  0  0  0  0  0  0  0  0  0
   -0.6719   -1.2451    0.0000 C   0  0  0  0  0  0  0  0  0  0  0  0
    0.1738    0.2491    0.0000 C   0  0  0  0  0  0  0  0  0  0  0  0
    1.0712   -0.2489    0.0000 C   0  0  0  0  0  0  0  0  0  0  0  0
    3.4370    0.7730    0.0000 C   0  0  0  0  0  0  0  0  0  0  0  0
    0.1738   -1.7430    0.0000 C   0  0  0  0  0  0  0  0  0  0  0  0
    1.0453    1.7432    0.0000 C   0  0  0  0  0  0  0  0  0  0  0  0
    2.8663   -0.0518    0.0000 C   0  0  0  0  0  0  0  0  0  0  0  0
    1.0712   -1.2451    0.0000 C   0  0  0  0  0  0  0  0  0  0  0  0
    0.1738    1.2451    0.0000 C   0  0  0  0  0  0  0  0  0  0  0  0
   -1.5435    0.2491    0.0000 C   0  0  0  0  0  0  0  0  0  0  0  0
    3.2138    2.4903    0.0000 C   0  0  0  0  0  0  0  0  0  0  0  0
   -1.5435   -1.7430    0.0000 C   0  0  0  0  0  0  0  0  0  0  0  0
   -3.3124   -2.7652    0.0000 C   0  0  0  0  0  0  0  0  0  0  0  0
   -3.2865   -1.7690    0.0000 O   0  0  0  0  0  0  0  0  0  0  0  0
   -2.4149   -1.2451    0.0000 C   0  0  0  0  0  0  0  0  0  0  0  0
   -4.1840   -3.2632    0.0000 O   0  0  0  0  0  0  0  0  0  0  0  0
    4.1840    2.6873    0.0000 O   0  0  0  0  0  0  0  0  0  0  0  0
   -2.4149   -0.2489    0.0000 C   0  0  0  0  0  0  0  0  0  0  0  0
    1.9171    2.2672    0.0000 C   0  0  0  0  0  0  0  0  0  0  0  0
   -0.6719    0.7470    0.0000 C   0  0  0  0  0  0  0  0  0  0  0  0
   -2.4408   -3.2632    0.0000 C   0  0  0  0  0  0  0  0  0  0  0  0
    2.5654    3.2632    0.0000 C   0  0  0  0  0  0  0  0  0  0  0  0
  6  2  1  0  0  0  0
  3  1  1  0  0  0  0
  4  1  1  0  0  0  0
  5  2  1  0  0  0  0
  6 13  1  0  0  0  0
  7  4  1  0  0  0  0
  8  3  2  0  0  0  0
  9 12  1  0  0  0  0
 10  1  1  0  0  0  0
 11  4  1  0  0  0  0
 12  7  1  0  0  0  0
 13 10  1  0  0  0  0
 14  2  1  0  0  0  0
 15  3  1  0  0  0  0
 16  5  1  0  0  0  0
 17 18  1  0  0  0  0
 19 18  1  0  0  0  0
 19 22  1  0  0  0  0
 20 17  2  0  0  0  0
 21 15  2  0  0  0  0
 22 14  1  0  0  0  0
  1 23  1  0  0  0  0
  2 24  1  0  0  0  0
 25 17  1  0  0  0  0
 26 15  1  0  0  0  0
  8 11  1  0  0  0  0
  6  7  1  0  0  0  0
  5  9  2  0  0  0  0
 16 19  1  0  0  0  0
M  END
>  <IDNUMBER> (N039-0021)
N039-0021

>  <available> (N039-0021)
287

>  <H_acceptor> (N039-0021)
3

>  <H_donor> (N039-0021)
0

>  <B_rotN> (N039-0021)
3

>  <N_O> (N039-0021)
3

>  <logP> (N039-0021)
3.82

>  <logD> (N039-0021)
4.87

>  <logSw> (N039-0021)
-5.66

>  <PSA> (N039-0021)
43.37

>  <Chiral_centers> (N039-0021)
6

>  <Name> (N039-0021)
1-acetyl-9a,11a-dimethyl-3H,3aH,3bH,4H,6H,7H,8H,9H,9aH,9bH,10H,11H,11aH-cyclopenta[a]phenanthren-7-yl acetate

>  <Smile> (N039-0021)
CC(C1C2(C)CCC3C4(C)C(=CCC3C2CC=1)CC(OC(=O)C)CC4)=O

>  <Collection> (N039-0021)
DC

>  <InChI Key> (N039-0021)
MZWRIOUCMXPLKV-UHFFFAOYSA-N

>  <PERCENTSP3> (N039-0021)
73.9

$$$$

  -ISIS-  -- StrEd -- 

 24 25  0  0  0  0  0  0  0  0999 V2000
    3.4651    0.5095    0.0000 C   0  0  0  0  0  0  0  0  0  0  0  0
   -1.7039   -0.5337    0.0000 C   0  0  0  0  0  0  0  0  0  0  0  0
   -2.5798   -1.0411    0.0000 C   0  0  0  0  0  0  0  0  0  0  0  0
   -3.4510   -0.5337    0.0000 C   0  0  0  0  0  0  0  0  0  0  0  0
    3.4508   -0.5099    0.0000 O   0  0  0  0  0  0  0  0  0  0  0  0
    4.3123    1.0266    0.0000 C   0  0  0  0  0  0  0  0  0  0  0  0
   -0.8328   -1.0411    0.0000 O   0  0  0  0  0  0  0  0  0  0  0  0
    2.5796    1.0027    0.0000 N   0  0  0  0  0  0  0  0  0  0  0  0
   -1.7039    0.4520    0.0000 N   0  0  0  0  0  0  0  0  0  0  0  0
   -4.3267   -1.0411    0.0000 C   0  0  0  0  0  0  0  0  0  0  0  0
    5.1978    0.5573    0.0000 C   0  0  0  0  0  0  0  0  0  0  0  0
    4.3028    2.0268    0.0000 C   0  0  0  0  0  0  0  0  0  0  0  0
    1.7278    0.5000    0.0000 C   0  0  0  0  0  0  0  0  0  0  0  0
   -0.8568    0.9691    0.0000 C   0  0  0  0  0  0  0  0  0  0  0  0
   -4.3267   -2.0510    0.0000 C   0  0  0  0  0  0  0  0  0  0  0  0
   -5.1740   -0.5673    0.0000 C   0  0  0  0  0  0  0  0  0  0  0  0
    0.8806    0.9835    0.0000 C   0  0  0  0  0  0  0  0  0  0  0  0
    0.0191    0.4762    0.0000 C   0  0  0  0  0  0  0  0  0  0  0  0
    5.1163    2.5439    0.0000 C   0  0  0  0  0  0  0  0  0  0  0  0
    6.0497    1.0600    0.0000 C   0  0  0  0  0  0  0  0  0  0  0  0
   -6.0497   -1.0411    0.0000 C   0  0  0  0  0  0  0  0  0  0  0  0
   -5.1740   -2.5439    0.0000 C   0  0  0  0  0  0  0  0  0  0  0  0
   -6.0497   -2.0510    0.0000 C   0  0  0  0  0  0  0  0  0  0  0  0
    6.0497    2.0749    0.0000 C   0  0  0  0  0  0  0  0  0  0  0  0
  2  9  1  0  0  0  0
  3  2  1  0  0  0  0
  4  3  2  0  0  0  0
  5  1  2  0  0  0  0
  6  1  1  0  0  0  0
  7  2  2  0  0  0  0
  8  1  1  0  0  0  0
  9 14  1  0  0  0  0
 10  4  1  0  0  0  0
 11  6  2  0  0  0  0
 12  6  1  0  0  0  0
 13  8  1  0  0  0  0
 14 18  1  0  0  0  0
 15 10  2  0  0  0  0
 16 10  1  0  0  0  0
 17 13  1  0  0  0  0
 18 17  1  0  0  0  0
 19 12  2  0  0  0  0
 20 11  1  0  0  0  0
 21 16  2  0  0  0  0
 22 15  1  0  0  0  0
 23 21  1  0  0  0  0
 24 19  1  0  0  0  0
 20 24  2  0  0  0  0
 23 22  2  0  0  0  0
M  END
>  <IDNUMBER> (N038-0211)
N038-0211

>  <available> (N038-0211)
68

>  <H_acceptor> (N038-0211)
2

>  <H_donor> (N038-0211)
2

>  <B_rotN> (N038-0211)
10

>  <N_O> (N038-0211)
4

>  <logP> (N038-0211)
2.9

>  <logD> (N038-0211)
3.49

>  <logSw> (N038-0211)
-2.56

>  <PSA> (N038-0211)
58.2

>  <Chiral_centers> (N038-0211)
0

>  <Name> (N038-0211)
(2E)-3-phenyl-N-[4-(phenylformamido)butyl]prop-2-enamide

>  <Smile> (N038-0211)
c1ccc(C(NCCCCNC(C=Cc2ccccc2)=O)=O)cc1

>  <Collection> (N038-0211)
DC

>  <InChI Key> (N038-0211)
XYVZRTYPQHUZGY-BUHFOSPRSA-N

>  <PERCENTSP3> (N038-0211)
20

$$$$

  -ISIS-  -- StrEd -- 

 58 65  0  0  0  0  0  0  0  0999 V2000
    4.7703    2.5927    0.0000 C   0  0  0  0  0  0  0  0  0  0  0  0
    4.7703    3.3423    0.0000 C   0  0  0  0  0  0  0  0  0  0  0  0
    2.9140    2.2446    0.0000 C   0  0  0  0  0  0  0  0  0  0  0  0
    5.7341    4.5650    0.0000 C   0  0  0  0  0  0  0  0  0  0  0  0
    4.1545    2.2446    0.0000 C   0  0  1  0  0  0  0  0  0  0  0  0
    5.4394    3.5119    0.0000 C   0  0  0  0  0  0  0  0  0  0  0  0
    5.4394    2.3517    0.0000 C   0  0  0  0  0  0  0  0  0  0  0  0
    3.5117    2.5927    0.0000 C   0  0  2  0  0  0  0  0  0  0  0  0
   -1.3968    0.1295    0.0000 C   0  0  0  0  0  0  0  0  0  0  0  0
   -3.9847   -1.9053    0.0000 C   0  0  0  0  0  0  0  0  0  0  0  0
    5.8677    2.9586    0.0000 C   0  0  0  0  0  0  0  0  0  0  0  0
   -1.3968   -1.9053    0.0000 C   0  0  0  0  0  0  0  0  0  0  0  0
   -3.9847   -5.1002    0.0000 C   0  0  0  0  0  0  0  0  0  0  0  0
    1.0220    0.1295    0.0000 C   0  0  0  0  0  0  0  0  0  0  0  0
   -2.0570   -1.0309    0.0000 O   0  0  0  0  0  0  0  0  0  0  0  0
   -4.6542   -4.1542    0.0000 O   0  0  0  0  0  0  0  0  0  0  0  0
    0.4060    0.9419    0.0000 O   0  0  0  0  0  0  0  0  0  0  0  0
    5.0735    5.3504    0.0000 C   0  0  0  0  0  0  0  0  0  0  0  0
   -2.0570   -2.7174    0.0000 C   0  0  0  0  0  0  0  0  0  0  0  0
   -4.6542   -6.0195    0.0000 C   0  0  0  0  0  0  0  0  0  0  0  0
    0.4060   -0.6467    0.0000 C   0  0  0  0  0  0  0  0  0  0  0  0
    2.9140    1.4950    0.0000 C   0  0  0  0  0  0  0  0  0  0  0  0
   -0.7989   -0.6467    0.0000 C   0  0  0  0  0  0  0  0  0  0  0  0
   -3.3691   -2.7174    0.0000 C   0  0  0  0  0  0  0  0  0  0  0  0
   -6.7250   -5.1002    0.0000 C   0  0  0  0  0  0  0  0  0  0  0  0
    4.1545    3.6815    0.0000 C   0  0  0  0  0  0  0  0  0  0  0  0
   -3.3691   -1.0309    0.0000 C   0  0  0  0  0  0  0  0  0  0  0  0
   -0.7989    0.9419    0.0000 C   0  0  0  0  0  0  0  0  0  0  0  0
   -6.0645   -6.0195    0.0000 C   0  0  0  0  0  0  0  0  0  0  0  0
    5.7160    6.2785    0.0000 C   0  0  0  0  0  0  0  0  0  0  0  0
   -6.0645   -4.1542    0.0000 C   0  0  0  0  0  0  0  0  0  0  0  0
   -1.3968   -0.9414    0.0000 O   0  0  0  0  0  0  0  0  0  0  0  0
   -3.9847   -3.4046    0.0000 O   0  0  0  0  0  0  0  0  0  0  0  0
    3.5117    3.3423    0.0000 C   0  0  0  0  0  0  0  0  0  0  0  0
    6.7247    5.9751    0.0000 O   0  0  0  0  0  0  0  0  0  0  0  0
    2.2268    2.5927    0.0000 C   0  0  0  0  0  0  0  0  0  0  0  0
    4.1545    1.4950    0.0000 C   0  0  0  0  0  0  0  0  0  0  0  0
    6.7247    4.9220    0.0000 C   0  0  0  0  0  0  0  0  0  0  0  0
    1.0220    1.1380    0.0000 O   0  0  0  0  0  0  0  0  0  0  0  0
    2.2268    1.1737    0.0000 C   0  0  0  0  0  0  0  0  0  0  0  0
    3.5117    1.1737    0.0000 C   0  0  0  0  0  0  0  0  0  0  0  0
    4.7522    1.3703    0.0000 O   0  0  0  0  0  0  0  0  0  0  0  0
    5.3501    7.3227    0.0000 O   0  0  0  0  0  0  0  0  0  0  0  0
    1.6465    1.4950    0.0000 C   0  0  0  0  0  0  0  0  0  0  0  0
    4.7078    4.6275    0.0000 C   0  0  0  0  0  0  0  0  0  0  0  0
    6.7693    2.9316    0.0000 O   0  0  0  0  0  0  0  0  0  0  0  0
    1.6465    2.2446    0.0000 C   0  0  0  0  0  0  0  0  0  0  0  0
   -6.7693   -6.6620    0.0000 O   0  0  0  0  0  0  0  0  0  0  0  0
   -3.3423   -3.6188    0.0000 O   0  0  0  0  0  0  0  0  0  0  0  0
   -0.7989   -1.3522    0.0000 O   0  0  0  0  0  0  0  0  0  0  0  0
   -6.0645   -7.3227    0.0000 O   0  0  0  0  0  0  0  0  0  0  0  0
    2.8691    3.4227    0.0000 C   0  0  0  0  0  0  0  0  0  0  0  0
   -0.8167    2.2270    0.0000 C   0  0  0  0  0  0  0  0  0  0  0  0
   -3.3423    0.1739    0.0000 C   0  0  0  0  0  0  0  0  0  0  0  0
   -6.0645   -3.0657    0.0000 C   0  0  0  0  0  0  0  0  0  0  0  0
    3.5295    1.7362    0.0000 H   0  0  0  0  0  0  0  0  0  0  0  0
    4.1545    2.9943    0.0000 H   0  0  0  0  0  0  0  0  0  0  0  0
    2.9140    0.2993    0.0000 H   0  0  0  0  0  0  0  0  0  0  0  0
  2  1  1  0  0  0  0
  3  8  1  0  0  0  0
  6  4  1  0  0  0  0
  5  1  1  0  0  0  0
  6  2  1  0  0  0  0
  7  1  1  0  0  0  0
  8  5  1  0  0  0  0
  9 23  1  0  0  0  0
 10 24  1  0  0  0  0
 11  7  1  0  0  0  0
 12 32  1  0  0  0  0
 13 33  1  0  0  0  0
 14 39  1  0  0  0  0
 15 12  1  0  0  0  0
 16 13  1  0  0  0  0
 17 14  1  0  0  0  0
 18  4  2  0  0  0  0
 19 12  1  0  0  0  0
 20 13  1  0  0  0  0
 21 14  1  0  0  0  0
 22 41  1  0  0  0  0
 23 21  1  0  0  0  0
 24 19  1  0  0  0  0
 25 29  1  0  0  0  0
 26  2  1  0  0  0  0
 27 15  1  0  0  0  0
 28 17  1  0  0  0  0
 29 20  1  0  0  0  0
 30 18  1  0  0  0  0
 31 16  1  0  0  0  0
  9 32  1  0  0  0  0
 10 33  1  0  0  0  0
 34  8  1  0  0  0  0
 35 38  1  0  0  0  0
 36  3  1  0  0  0  0
 37  5  1  0  0  0  0
 38  4  1  0  0  0  0
 44 39  1  0  0  0  0
 40 22  1  0  0  0  0
 41 37  1  0  0  0  0
  1 42  1  0  0  0  0
 43 30  2  0  0  0  0
 44 40  1  0  0  0  0
  2 45  1  0  0  0  0
 11 46  1  0  0  0  0
 47 36  1  0  0  0  0
 25 48  1  0  0  0  0
 24 49  1  0  0  0  0
 23 50  1  0  0  0  0
 29 51  1  0  0  0  0
  3 52  1  0  0  0  0
 28 53  1  0  0  0  0
 27 54  1  0  0  0  0
 31 55  1  0  0  0  0
  8 56  1  6  0  0  0
  5 57  1  1  0  0  0
 22 58  1  0  0  0  0
  6 11  1  0  0  0  0
 34 26  1  0  0  0  0
 22  3  1  0  0  0  0
 44 47  1  0  0  0  0
 30 35  1  0  0  0  0
  9 28  1  0  0  0  0
 10 27  1  0  0  0  0
 25 31  1  0  0  0  0
M  END
>  <IDNUMBER> (0449-0141)
0449-0141

>  <available> (0449-0141)
528

>  <H_acceptor> (0449-0141)
14

>  <H_donor> (0449-0141)
6

>  <B_rotN> (0449-0141)
13

>  <N_O> (0449-0141)
14

>  <logP> (0449-0141)
1.7

>  <logD> (0449-0141)
1.68

>  <logSw> (0449-0141)
-3.51

>  <PSA> (0449-0141)
203.06

>  <Chiral_centers> (0449-0141)
21

>  <Name> (0449-0141)
4-(7-{[5-({5-[(4,5-dihydroxy-6-methyloxan-2-yl)oxy]-4-hydroxy-6-methyloxan-2-yl}oxy)-4-hydroxy-6-methyloxan-2-yl]oxy}-2,3a-dihydroxy-9a,11a-dimethyl-hexadecahydro-1H-cyclopenta[a]phenanthren-1-yl)-2,5
-dihydrofuran-2-one

>  <Smile> (0449-0141)
CC1OC(OC2C(OC(OC3C(OC(OC4CC5C(C6C(C7(O)CC(C(C7(C)CC6)C6=CC(OC6)=O)O)CC5)(C)CC4)CC3O)C)CC2O)C)CC(C1O)O

>  <Collection> (0449-0141)
DC

>  <InChI Key> (0449-0141)
LKRDZKPBAOKJBT-ZEGQYFAQSA-N

>  <PERCENTSP3> (0449-0141)
92.7

$$$$

  -ISIS-  -- StrEd -- 

 71 79  0  0  0  0  0  0  0  0999 V2000
    6.0250    3.6851    0.0000 C   0  0  0  0  0  0  0  0  0  0  0  0
    6.0250    4.3840    0.0000 C   0  0  0  0  0  0  0  0  0  0  0  0
   -4.4619   -6.2194    0.0000 C   0  0  0  0  0  0  0  0  0  0  0  0
   -5.1806   -7.1811    0.0000 C   0  0  0  0  0  0  0  0  0  0  0  0
    4.3259    3.3745    0.0000 C   0  0  0  0  0  0  0  0  0  0  0  0
   -6.6082   -7.1811    0.0000 C   0  0  0  0  0  0  0  0  0  0  0  0
    5.4621    3.3745    0.0000 C   0  0  1  0  0  0  0  0  0  0  0  0
    4.8795    3.6851    0.0000 C   0  0  2  0  0  0  0  0  0  0  0  0
   -5.1806   -5.2677    0.0000 O   0  0  0  0  0  0  0  0  0  0  0  0
   -4.4619   -3.3066    0.0000 C   0  0  0  0  0  0  0  0  0  0  0  0
    6.9088    5.4719    0.0000 C   0  0  0  0  0  0  0  0  0  0  0  0
   -4.4619   -4.7532    0.0000 O   0  0  0  0  0  0  0  0  0  0  0  0
    6.6275    4.5496    0.0000 C   0  0  0  0  0  0  0  0  0  0  0  0
   -3.8599   -4.1513    0.0000 C   0  0  0  0  0  0  0  0  0  0  0  0
   -7.2780   -6.2194    0.0000 C   0  0  0  0  0  0  0  0  0  0  0  0
    0.4128    1.4419    0.0000 C   0  0  0  0  0  0  0  0  0  0  0  0
   -1.9662   -0.4226    0.0000 C   0  0  0  0  0  0  0  0  0  0  0  0
   -6.6082   -5.2677    0.0000 C   0  0  0  0  0  0  0  0  0  0  0  0
   -1.9662   -3.3066    0.0000 C   0  0  0  0  0  0  0  0  0  0  0  0
    0.4128   -0.4226    0.0000 C   0  0  0  0  0  0  0  0  0  0  0  0
    2.5974    1.4419    0.0000 C   0  0  0  0  0  0  0  0  0  0  0  0
   -2.5491   -2.4519    0.0000 O   0  0  0  0  0  0  0  0  0  0  0  0
   -0.2184    0.3930    0.0000 O   0  0  0  0  0  0  0  0  0  0  0  0
   -2.5491   -4.1513    0.0000 C   0  0  0  0  0  0  0  0  0  0  0  0
    2.0438    2.1899    0.0000 O   0  0  0  0  0  0  0  0  0  0  0  0
   -0.2184   -1.1701    0.0000 C   0  0  0  0  0  0  0  0  0  0  0  0
    2.0438    0.7427    0.0000 C   0  0  0  0  0  0  0  0  0  0  0  0
    6.3068    6.1999    0.0000 C   0  0  0  0  0  0  0  0  0  0  0  0
    4.3259    2.7044    0.0000 C   0  0  0  0  0  0  0  0  0  0  0  0
   -1.3838   -1.1701    0.0000 C   0  0  0  0  0  0  0  0  0  0  0  0
    0.9469    0.7427    0.0000 C   0  0  0  0  0  0  0  0  0  0  0  0
   -3.8599   -2.4519    0.0000 C   0  0  0  0  0  0  0  0  0  0  0  0
   -1.3838    0.3930    0.0000 C   0  0  0  0  0  0  0  0  0  0  0  0
    0.9469    2.1899    0.0000 C   0  0  0  0  0  0  0  0  0  0  0  0
    6.8895    7.0641    0.0000 C   0  0  0  0  0  0  0  0  0  0  0  0
    6.6275    3.4910    0.0000 C   0  0  0  0  0  0  0  0  0  0  0  0
    5.4621    4.6853    0.0000 C   0  0  0  0  0  0  0  0  0  0  0  0
   -1.9662   -1.7918    0.0000 O   0  0  0  0  0  0  0  0  0  0  0  0
    0.4128    0.4614    0.0000 O   0  0  0  0  0  0  0  0  0  0  0  0
    4.8795    4.3840    0.0000 C   0  0  0  0  0  0  0  0  0  0  0  0
   -3.8599   -5.3652    0.0000 O   0  0  0  0  0  0  0  0  0  0  0  0
    7.8216    6.7535    0.0000 O   0  0  0  0  0  0  0  0  0  0  0  0
    7.0255    4.0345    0.0000 C   0  0  0  0  0  0  0  0  0  0  0  0
    3.7144    3.6851    0.0000 C   0  0  0  0  0  0  0  0  0  0  0  0
    5.4621    2.7044    0.0000 C   0  0  0  0  0  0  0  0  0  0  0  0
   -2.9957   -5.8502    0.0000 C   0  0  0  0  0  0  0  0  0  0  0  0
    7.8216    5.8021    0.0000 C   0  0  0  0  0  0  0  0  0  0  0  0
    2.5974    2.3547    0.0000 O   0  0  0  0  0  0  0  0  0  0  0  0
    3.7144    2.4030    0.0000 C   0  0  0  0  0  0  0  0  0  0  0  0
    4.8795    2.4030    0.0000 C   0  0  0  0  0  0  0  0  0  0  0  0
    6.5591    8.0160    0.0000 O   0  0  0  0  0  0  0  0  0  0  0  0
    3.1801    2.7044    0.0000 C   0  0  0  0  0  0  0  0  0  0  0  0
    6.0250    1.6558    0.0000 O   0  0  0  0  0  0  0  0  0  0  0  0
   -2.9957   -6.8506    0.0000 O   0  0  0  0  0  0  0  0  0  0  0  0
   -5.1806   -8.0160    0.0000 O   0  0  0  0  0  0  0  0  0  0  0  0
   -6.5398   -6.1029    0.0000 O   0  0  0  0  0  0  0  0  0  0  0  0
   -7.2587   -7.7344    0.0000 O   0  0  0  0  0  0  0  0  0  0  0  0
    3.1801    3.3745    0.0000 C   0  0  0  0  0  0  0  0  0  0  0  0
    5.9767    5.8213    0.0000 C   0  0  0  0  0  0  0  0  0  0  0  0
   -1.3838   -1.9857    0.0000 O   0  0  0  0  0  0  0  0  0  0  0  0
    1.0145   -0.3737    0.0000 O   0  0  0  0  0  0  0  0  0  0  0  0
    4.2580    4.6367    0.0000 C   0  0  0  0  0  0  0  0  0  0  0  0
   -6.6275   -4.0541    0.0000 C   0  0  0  0  0  0  0  0  0  0  0  0
   -7.8216   -3.2868    0.0000 O   0  0  0  0  0  0  0  0  0  0  0  0
   -3.9278   -1.1410    0.0000 C   0  0  0  0  0  0  0  0  0  0  0  0
    0.9176    3.3552    0.0000 C   0  0  0  0  0  0  0  0  0  0  0  0
   -1.3838    1.4905    0.0000 C   0  0  0  0  0  0  0  0  0  0  0  0
   -2.1510   -5.3652    0.0000 C   0  0  0  0  0  0  0  0  0  0  0  0
    4.3259    1.3254    0.0000 H   0  0  0  0  0  0  0  0  0  0  0  0
    4.9085    2.9083    0.0000 H   0  0  0  0  0  0  0  0  0  0  0  0
    5.4621    4.0541    0.0000 H   0  0  0  0  0  0  0  0  0  0  0  0
  2  1  1  0  0  0  0
  3 12  1  0  0  0  0
  4  3  1  0  0  0  0
  5  8  1  0  0  0  0
  6  4  1  0  0  0  0
  7  1  1  0  0  0  0
  8  7  1  0  0  0  0
  9  3  1  0  0  0  0
 10 14  1  0  0  0  0
 13 11  1  0  0  0  0
 10 12  1  0  0  0  0
 13  2  1  0  0  0  0
 14 24  1  0  0  0  0
 15 18  1  0  0  0  0
 16 31  1  0  0  0  0
 17 30  1  0  0  0  0
 18  9  1  0  0  0  0
 19 38  1  0  0  0  0
 20 39  1  0  0  0  0
 21 48  1  0  0  0  0
 22 19  1  0  0  0  0
 23 20  1  0  0  0  0
 24 19  1  0  0  0  0
 25 21  1  0  0  0  0
 26 20  1  0  0  0  0
 27 21  1  0  0  0  0
 28 11  2  0  0  0  0
 29 50  1  0  0  0  0
 30 26  1  0  0  0  0
 31 27  1  0  0  0  0
 32 22  1  0  0  0  0
 33 23  1  0  0  0  0
 34 25  1  0  0  0  0
 35 28  1  0  0  0  0
 36  1  1  0  0  0  0
 37  2  1  0  0  0  0
 17 38  1  0  0  0  0
 16 39  1  0  0  0  0
 40  8  1  0  0  0  0
 14 41  1  0  0  0  0
 42 47  1  0  0  0  0
 43 36  1  0  0  0  0
 44  5  1  0  0  0  0
 45  7  1  0  0  0  0
 46 41  1  0  0  0  0
 47 11  1  0  0  0  0
 52 48  1  0  0  0  0
 49 29  1  0  0  0  0
 50 45  1  0  0  0  0
 51 35  2  0  0  0  0
 52 49  1  0  0  0  0
  1 53  1  0  0  0  0
 54 46  2  0  0  0  0
  4 55  1  0  0  0  0
  6 56  1  0  0  0  0
 15 57  1  0  0  0  0
 58 44  1  0  0  0  0
  2 59  1  0  0  0  0
 30 60  1  0  0  0  0
 31 61  1  0  0  0  0
  5 62  1  0  0  0  0
 18 63  1  0  0  0  0
 64 63  1  0  0  0  0
 32 65  1  0  0  0  0
 34 66  1  0  0  0  0
 33 67  1  0  0  0  0
 68 46  1  0  0  0  0
 29 69  1  0  0  0  0
  8 70  1  6  0  0  0
  7 71  1  1  0  0  0
 13 43  1  0  0  0  0
 40 37  1  0  0  0  0
 29  5  1  0  0  0  0
 52 58  1  0  0  0  0
 35 42  1  0  0  0  0
 16 34  1  0  0  0  0
 17 33  1  0  0  0  0
 10 32  1  0  0  0  0
 15  6  1  0  0  0  0
M  END
>  <IDNUMBER> (0449-0136)
0449-0136

>  <available> (0449-0136)
307

>  <H_acceptor> (0449-0136)
19

>  <H_donor> (0449-0136)
7

>  <B_rotN> (0449-0136)
19

>  <N_O> (0449-0136)
19

>  <logP> (0449-0136)
1.63

>  <logD> (0449-0136)
1.5

>  <logSw> (0449-0136)
-3.9

>  <PSA> (0449-0136)
268.05

>  <Chiral_centers> (0449-0136)
25

>  <Name> (0449-0136)
6-({6-[(6-{[3a-hydroxy-9a,11a-dimethyl-1-(5-oxo-2,5-dihydrofuran-3-yl)-hexadecahydro-1H-cyclopenta[a]phenanthren-7-yl]oxy}-4-hydroxy-2-methyloxan-3-yl)oxy]-4-hydroxy-2-methyloxan-3-yl}oxy)-2-methyl-3-
{[3,4,5-trihydroxy-6-(hydroxymethyl)oxan-2-yl]oxy}oxan-4-yl acetate

>  <Smile> (0449-0136)
CC(OC1C(C(OC(OC2C(OC(OC3C(OC(OC4CC5C(C6C(C7(O)CCC(C7(C)CC6)C6=CC(OC6)=O)CC5)(C)CC4)CC3O)C)CC2O)C)C1)C)OC1C(C(O)C(C(O1)CO)O)O)=O

>  <Collection> (0449-0136)
DC

>  <InChI Key> (0449-0136)
YFGQJKBUXPKSAW-GCWFXZNTSA-N

>  <PERCENTSP3> (0449-0136)
91.8

$$$$

  -ISIS-  -- StrEd -- 

 32 36  0  0  0  0  0  0  0  0999 V2000
    0.5792   -0.6044    0.0000 C   0  0  1  0  0  0  0  0  0  0  0  0
   -0.1854   -1.0392    0.0000 C   0  0  1  0  0  0  0  0  0  0  0  0
   -1.7100   -1.0392    0.0000 C   0  0  2  0  0  0  0  0  0  0  0  0
    0.5792    0.2747    0.0000 C   0  0  0  0  0  0  0  0  0  0  0  0
   -0.9593   -0.6044    0.0000 C   0  0  0  0  0  0  0  0  0  0  0  0
   -1.7100   -2.0282    0.0000 C   0  0  0  0  0  0  0  0  0  0  0  0
    1.5453    0.9525    0.0000 C   0  0  0  0  0  0  0  0  0  0  0  0
   -2.5342   -2.5090    0.0000 C   0  0  1  0  0  0  0  0  0  0  0  0
    1.8199    1.9230    0.0000 C   0  0  0  0  0  0  0  0  0  0  0  0
    2.5069    0.4030    0.0000 C   0  0  0  0  0  0  0  0  0  0  0  0
   -0.1854   -2.0282    0.0000 C   0  0  0  0  0  0  0  0  0  0  0  0
    1.5453   -1.2590    0.0000 C   0  0  0  0  0  0  0  0  0  0  0  0
   -0.1854    0.7419    0.0000 C   0  0  0  0  0  0  0  0  0  0  0  0
   -2.5342   -0.6044    0.0000 C   0  0  0  0  0  0  0  0  0  0  0  0
   -0.9593    0.2747    0.0000 C   0  0  0  0  0  0  0  0  0  0  0  0
   -0.9593   -2.5090    0.0000 C   0  0  0  0  0  0  0  0  0  0  0  0
    1.2019    2.6923    0.0000 C   0  0  0  0  0  0  0  0  0  0  0  0
    2.7770    2.0193    0.0000 C   0  0  0  0  0  0  0  0  0  0  0  0
   -3.3035   -2.0282    0.0000 C   0  0  0  0  0  0  0  0  0  0  0  0
    2.5069   -0.7095    0.0000 C   0  0  0  0  0  0  0  0  0  0  0  0
    3.2073    1.1264    0.0000 C   0  0  0  0  0  0  0  0  0  0  0  0
   -3.3035   -1.0392    0.0000 C   0  0  0  0  0  0  0  0  0  0  0  0
    1.5543    3.5988    0.0000 C   0  0  0  0  0  0  0  0  0  0  0  0
    0.5838   -1.6437    0.0000 C   0  0  0  0  0  0  0  0  0  0  0  0
   -0.1854   -0.1648    0.0000 C   0  0  0  0  0  0  0  0  0  0  0  0
   -1.7100   -0.1372    0.0000 C   0  0  0  0  0  0  0  0  0  0  0  0
   -1.8520   -3.4431    0.0000 C   0  0  0  0  0  0  0  0  0  0  0  0
   -3.0699   -3.5988    0.0000 C   0  0  0  0  0  0  0  0  0  0  0  0
   -4.4572   -2.7425    0.0000 O   0  0  0  0  0  0  0  0  0  0  0  0
    3.5645   -0.2334    0.0000 C   0  0  0  0  0  0  0  0  0  0  0  0
    4.4572    0.2472    0.0000 O   0  0  0  0  0  0  0  0  0  0  0  0
    0.2495    2.5321    0.0000 C   0  0  0  0  0  0  0  0  0  0  0  0
  2  1  1  0  0  0  0
  5  3  1  0  0  0  0
  4  1  1  0  0  0  0
  5  2  1  0  0  0  0
  6 16  1  0  0  0  0
  7  4  1  0  0  0  0
  8  6  1  0  0  0  0
  9  7  1  0  0  0  0
 10 20  1  0  0  0  0
 11  2  1  0  0  0  0
 12  1  1  0  0  0  0
 13  4  1  0  0  0  0
 14  3  1  0  0  0  0
 15 13  1  0  0  0  0
 16 11  1  0  0  0  0
  9 17  1  0  0  0  0
 18  9  1  0  0  0  0
 19  8  1  0  0  0  0
 20 12  1  0  0  0  0
 21 10  1  0  0  0  0
 22 14  1  0  0  0  0
 23 17  2  0  0  0  0
  1 24  1  6  0  0  0
  2 25  1  1  0  0  0
  3 26  1  1  0  0  0
  8 27  1  6  0  0  0
  8 28  1  1  0  0  0
 19 29  1  0  0  0  0
 10 30  1  0  0  0  0
 31 30  1  0  0  0  0
 32 17  1  0  0  0  0
 10  7  1  0  0  0  0
  5 15  1  0  0  0  0
 18 21  1  0  0  0  0
  3  6  1  0  0  0  0
 22 19  1  0  0  0  0
M  END
>  <IDNUMBER> (N032-0001)
N032-0001

>  <available> (N032-0001)
336

>  <H_acceptor> (N032-0001)
2

>  <H_donor> (N032-0001)
2

>  <B_rotN> (N032-0001)
4

>  <N_O> (N032-0001)
2

>  <logP> (N032-0001)
6.91

>  <logD> (N032-0001)
8.41

>  <logSw> (N032-0001)
-8.75

>  <PSA> (N032-0001)
40.46

>  <Chiral_centers> (N032-0001)
10

>  <Name> (N032-0001)
3a-(hydroxymethyl)-5a,5b,8,8,11a-pentamethyl-1-(prop-1-en-2-yl)-icosahydro-1H-cyclopenta[a]chrysen-9-ol

>  <Smile> (N032-0001)
CC(C1C2C3C(CCC2(CC1)CO)(C1(C)C(C2(C(CC1)C(C)(C)C(O)CC2)C)CC3)C)=C

>  <Collection> (N032-0001)
DC

>  <InChI Key> (N032-0001)
FVWJYYTZTCVBKE-LQHCPYKRSA-N

>  <PERCENTSP3> (N032-0001)
93.3

$$$$

  -ISIS-  -- StrEd -- 

 19 21  0  0  0  0  0  0  0  0999 V2000
   -2.1819   -0.7291    0.0000 C   0  0  0  0  0  0  0  0  0  0  0  0
   -0.6680   -0.2414    0.0000 C   0  0  0  0  0  0  0  0  0  0  0  0
   -1.5977    0.0736    0.0000 C   0  0  0  0  0  0  0  0  0  0  0  0
   -1.5977   -1.5621    0.0000 O   0  0  0  0  0  0  0  0  0  0  0  0
   -0.6680   -1.2420    0.0000 C   0  0  0  0  0  0  0  0  0  0  0  0
    1.0642   -1.2420    0.0000 C   0  0  0  0  0  0  0  0  0  0  0  0
    0.1855    0.2667    0.0000 C   0  0  0  0  0  0  0  0  0  0  0  0
    1.9380   -1.7550    0.0000 O   0  0  0  0  0  0  0  0  0  0  0  0
    0.1855   -1.7550    0.0000 C   0  0  0  0  0  0  0  0  0  0  0  0
    1.0642   -0.2414    0.0000 C   0  0  0  0  0  0  0  0  0  0  0  0
    2.7914   -1.2420    0.0000 C   0  0  0  0  0  0  0  0  0  0  0  0
    1.9380    0.2667    0.0000 C   0  0  0  0  0  0  0  0  0  0  0  0
    2.7914   -0.2414    0.0000 C   0  0  0  0  0  0  0  0  0  0  0  0
    3.6702   -1.7550    0.0000 O   0  0  0  0  0  0  0  0  0  0  0  0
   -3.1825   -0.7086    0.0000 C   0  0  0  0  0  0  0  0  0  0  0  0
   -1.9127    1.0236    0.0000 O   0  0  0  0  0  0  0  0  0  0  0  0
   -3.6702    0.1447    0.0000 C   0  0  0  0  0  0  0  0  0  0  0  0
   -3.6702   -1.5825    0.0000 C   0  0  0  0  0  0  0  0  0  0  0  0
   -1.2522    1.7550    0.0000 C   0  0  0  0  0  0  0  0  0  0  0  0
  2  3  1  0  0  0  0
  3  1  2  0  0  0  0
  4  1  1  0  0  0  0
  5  4  1  0  0  0  0
  6  9  1  0  0  0  0
  7  2  2  0  0  0  0
  8  6  1  0  0  0  0
  9  5  2  0  0  0  0
 10  7  1  0  0  0  0
 11  8  1  0  0  0  0
 12 10  1  0  0  0  0
 13 12  2  0  0  0  0
 14 11  2  0  0  0  0
 15  1  1  0  0  0  0
 16  3  1  0  0  0  0
 17 15  1  0  0  0  0
 18 15  1  0  0  0  0
 19 16  1  0  0  0  0
  5  2  1  0  0  0  0
  6 10  2  0  0  0  0
 13 11  1  0  0  0  0
M  END
>  <IDNUMBER> (0080-0009)
0080-0009

>  <available> (0080-0009)
2129

>  <H_acceptor> (0080-0009)
4

>  <H_donor> (0080-0009)
0

>  <B_rotN> (0080-0009)
2

>  <N_O> (0080-0009)
4

>  <logP> (0080-0009)
3.36

>  <logD> (0080-0009)
3.46

>  <logSw> (0080-0009)
-4.64

>  <PSA> (0080-0009)
48.67

>  <Chiral_centers> (0080-0009)
0

>  <Name> (0080-0009)
3-methoxy-2-(propan-2-yl)-7H-furo[3,2-g]chromen-7-one

>  <Smile> (0080-0009)
COC1=C(C(C)C)Oc2c1cc1c(c2)OC(C=C1)=O

>  <Collection> (0080-0009)
DC

>  <CLNUMBER> (0080-0009)
CL5282

>  <InChI Key> (0080-0009)
YQBNJPACAUPNLV-UHFFFAOYSA-N

>  <PERCENTSP3> (0080-0009)
26.7

$$$$
