135398735
  -OEChem-04052116402D

117121  0     1  0  0  0  0  0999 V2000
    7.3026   -2.5115    0.0000 O   0  0  0  0  0  0  0  0  0  0  0  0
    4.9418   -1.8857    0.0000 O   0  0  0  0  0  0  0  0  0  0  0  0
    5.6054    0.7580    0.0000 O   0  0  0  0  0  0  0  0  0  0  0  0
    9.4939   -2.6692    0.0000 O   0  0  0  0  0  0  0  0  0  0  0  0
   11.2817   -1.2180    0.0000 O   0  0  0  0  0  0  0  0  0  0  0  0
   11.7547    0.6874    0.0000 O   0  0  0  0  0  0  0  0  0  0  0  0
    5.6384   -2.9920    0.0000 O   0  0  0  0  0  0  0  0  0  0  0  0
   10.6715   -1.0678    0.0000 O   0  0  0  0  0  0  0  0  0  0  0  0
   10.1516    3.8545    0.0000 O   0  0  0  0  0  0  0  0  0  0  0  0
    9.0433    0.0613    0.0000 O   0  0  0  0  0  0  0  0  0  0  0  0
    8.4032    3.8891    0.0000 O   0  0  0  0  0  0  0  0  0  0  0  0
    5.0642    1.7723    0.0000 O   0  0  0  0  0  0  0  0  0  0  0  0
    4.8152    0.9814    0.0000 N   0  0  0  0  0  0  0  0  0  0  0  0
    2.9384    0.2903    0.0000 N   0  0  0  0  0  0  0  0  0  0  0  0
    6.5876    1.9353    0.0000 N   0  0  0  0  0  0  0  0  0  0  0  0
    5.7536    1.3270    0.0000 N   0  0  0  0  0  0  0  0  0  0  0  0
    6.3676   -0.7973    0.0000 C   0  0  2  0  0  0  0  0  0  0  0  0
    5.3863   -0.9899    0.0000 C   0  0  1  0  0  0  0  0  0  0  0  0
    7.0251   -1.5508    0.0000 C   0  0  1  0  0  0  0  0  0  0  0  0
    4.5562   -0.4323    0.0000 C   0  0  1  0  0  0  0  0  0  0  0  0
    8.0063   -1.3581    0.0000 C   0  0  1  0  0  0  0  0  0  0  0  0
    4.6241    0.5654    0.0000 C   0  0  2  0  0  0  0  0  0  0  0  0
    5.5375   -0.2397    0.0000 C   0  0  0  0  0  0  0  0  0  0  0  0
    8.8364   -1.9157    0.0000 C   0  0  2  0  0  0  0  0  0  0  0  0
    3.7940    1.1230    0.0000 C   0  0  1  0  0  0  0  0  0  0  0  0
    4.2324   -1.3784    0.0000 C   0  0  0  0  0  0  0  0  0  0  0  0
    8.9226   -0.9576    0.0000 C   0  0  0  0  0  0  0  0  0  0  0  0
    2.6656    0.9015    0.0000 C   0  0  0  0  0  0  0  0  0  0  0  0
    9.7344   -1.4756    0.0000 C   0  0  0  0  0  0  0  0  0  0  0  0
    3.8619    2.1207    0.0000 C   0  0  0  0  0  0  0  0  0  0  0  0
    6.6092   -3.2322    0.0000 C   0  0  0  0  0  0  0  0  0  0  0  0
   10.5645   -2.0333    0.0000 C   0  0  0  0  0  0  0  0  0  0  0  0
    4.7598    2.5608    0.0000 C   0  0  0  0  0  0  0  0  0  0  0  0
    9.1702   -3.6153    0.0000 C   0  0  0  0  0  0  0  0  0  0  0  0
   11.3496   -0.2204    0.0000 C   0  0  1  0  0  0  0  0  0  0  0  0
    6.8867   -4.1929    0.0000 C   0  0  0  0  0  0  0  0  0  0  0  0
   10.1516    0.8545    0.0000 C   0  0  0  0  0  0  0  0  0  0  0  0
   10.3608   -0.1173    0.0000 C   0  0  0  0  0  0  0  0  0  0  0  0
   11.0177    1.3545    0.0000 C   0  0  0  0  0  0  0  0  0  0  0  0
    9.2856    1.3545    0.0000 C   0  0  0  0  0  0  0  0  0  0  0  0
    4.8277    3.5585    0.0000 C   0  0  0  0  0  0  0  0  0  0  0  0
   12.3200   -0.4618    0.0000 C   0  0  0  0  0  0  0  0  0  0  0  0
    9.2856    2.3545    0.0000 C   0  0  0  0  0  0  0  0  0  0  0  0
   11.0177    2.3545    0.0000 C   0  0  0  0  0  0  0  0  0  0  0  0
   10.1516    2.8545    0.0000 C   0  0  0  0  0  0  0  0  0  0  0  0
    8.3917    0.8199    0.0000 C   0  0  0  0  0  0  0  0  0  0  0  0
    8.3917    2.8892    0.0000 C   0  0  0  0  0  0  0  0  0  0  0  0
    5.8254    3.4906    0.0000 C   0  0  0  0  0  0  0  0  0  0  0  0
    7.4856    1.3337    0.0000 C   0  0  0  0  0  0  0  0  0  0  0  0
    7.4856    2.3753    0.0000 C   0  0  0  0  0  0  0  0  0  0  0  0
   11.8837    2.8545    0.0000 C   0  0  0  0  0  0  0  0  0  0  0  0
    4.6453   -0.0041    0.0000 C   0  0  0  0  0  0  0  0  0  0  0  0
    4.0467    1.6214    0.0000 C   0  0  0  0  0  0  0  0  0  0  0  0
    3.7069   -0.3496    0.0000 C   0  0  0  0  0  0  0  0  0  0  0  0
    3.1083    1.2758    0.0000 C   0  0  0  0  0  0  0  0  0  0  0  0
    5.7575    2.4929    0.0000 C   0  0  0  0  0  0  0  0  0  0  0  0
    6.6215    0.8304    0.0000 C   0  0  0  0  0  0  0  0  0  0  0  0
    6.5789    4.1481    0.0000 C   0  0  0  0  0  0  0  0  0  0  0  0
    2.0000   -0.0553    0.0000 C   0  0  0  0  0  0  0  0  0  0  0  0
    6.9243   -0.5244    0.0000 H   0  0  0  0  0  0  0  0  0  0  0  0
    5.7295   -1.5063    0.0000 H   0  0  0  0  0  0  0  0  0  0  0  0
    6.6793   -2.0654    0.0000 H   0  0  0  0  0  0  0  0  0  0  0  0
    4.0891   -0.8399    0.0000 H   0  0  0  0  0  0  0  0  0  0  0  0
    7.9673   -0.7393    0.0000 H   0  0  0  0  0  0  0  0  0  0  0  0
    5.1669    0.2658    0.0000 H   0  0  0  0  0  0  0  0  0  0  0  0
    5.8832    0.2750    0.0000 H   0  0  0  0  0  0  0  0  0  0  0  0
    5.0228    0.1061    0.0000 H   0  0  0  0  0  0  0  0  0  0  0  0
    5.1918   -0.7543    0.0000 H   0  0  0  0  0  0  0  0  0  0  0  0
    8.6357   -2.5023    0.0000 H   0  0  0  0  0  0  0  0  0  0  0  0
    3.5932    0.5364    0.0000 H   0  0  0  0  0  0  0  0  0  0  0  0
    3.6458   -1.1776    0.0000 H   0  0  0  0  0  0  0  0  0  0  0  0
    4.0316   -1.9650    0.0000 H   0  0  0  0  0  0  0  0  0  0  0  0
    4.8189   -1.5792    0.0000 H   0  0  0  0  0  0  0  0  0  0  0  0
    9.1709   -1.5257    0.0000 H   0  0  0  0  0  0  0  0  0  0  0  0
    9.4907   -0.7093    0.0000 H   0  0  0  0  0  0  0  0  0  0  0  0
    8.6743   -0.3895    0.0000 H   0  0  0  0  0  0  0  0  0  0  0  0
    5.2850   -2.4021    0.0000 H   0  0  0  0  0  0  0  0  0  0  0  0
    2.5461    1.5098    0.0000 H   0  0  0  0  0  0  0  0  0  0  0  0
    2.0572    0.7820    0.0000 H   0  0  0  0  0  0  0  0  0  0  0  0
    2.7850    0.2931    0.0000 H   0  0  0  0  0  0  0  0  0  0  0  0
    9.7765   -0.8571    0.0000 H   0  0  0  0  0  0  0  0  0  0  0  0
    6.0130    0.2909    0.0000 H   0  0  0  0  0  0  0  0  0  0  0  0
    3.3472    2.4664    0.0000 H   0  0  0  0  0  0  0  0  0  0  0  0
   10.6153   -2.6512    0.0000 H   0  0  0  0  0  0  0  0  0  0  0  0
    5.3267    2.3097    0.0000 H   0  0  0  0  0  0  0  0  0  0  0  0
    8.5836   -3.4146    0.0000 H   0  0  0  0  0  0  0  0  0  0  0  0
    8.9695   -4.2019    0.0000 H   0  0  0  0  0  0  0  0  0  0  0  0
    9.7568   -3.8160    0.0000 H   0  0  0  0  0  0  0  0  0  0  0  0
    6.2910   -4.3649    0.0000 H   0  0  0  0  0  0  0  0  0  0  0  0
    7.0587   -4.7885    0.0000 H   0  0  0  0  0  0  0  0  0  0  0  0
    7.4824   -4.0208    0.0000 H   0  0  0  0  0  0  0  0  0  0  0  0
    4.4201    4.0256    0.0000 H   0  0  0  0  0  0  0  0  0  0  0  0
   12.1703   -1.0634    0.0000 H   0  0  0  0  0  0  0  0  0  0  0  0
   12.9216   -0.6115    0.0000 H   0  0  0  0  0  0  0  0  0  0  0  0
   12.4697    0.1399    0.0000 H   0  0  0  0  0  0  0  0  0  0  0  0
    4.7553   -0.6142    0.0000 H   0  0  0  0  0  0  0  0  0  0  0  0
    5.2653   -0.0017    0.0000 H   0  0  0  0  0  0  0  0  0  0  0  0
    4.5202    2.0217    0.0000 H   0  0  0  0  0  0  0  0  0  0  0  0
    3.7347    2.1571    0.0000 H   0  0  0  0  0  0  0  0  0  0  0  0
   12.1937    2.3176    0.0000 H   0  0  0  0  0  0  0  0  0  0  0  0
   12.4206    3.1645    0.0000 H   0  0  0  0  0  0  0  0  0  0  0  0
   11.5737    3.3914    0.0000 H   0  0  0  0  0  0  0  0  0  0  0  0
    3.2335   -0.7500    0.0000 H   0  0  0  0  0  0  0  0  0  0  0  0
    4.0189   -0.8854    0.0000 H   0  0  0  0  0  0  0  0  0  0  0  0
    2.9983    1.8859    0.0000 H   0  0  0  0  0  0  0  0  0  0  0  0
    2.4883    1.2734    0.0000 H   0  0  0  0  0  0  0  0  0  0  0  0
    6.9531    1.4344    0.0000 H   0  0  0  0  0  0  0  0  0  0  0  0
    6.9336    0.2946    0.0000 H   0  0  0  0  0  0  0  0  0  0  0  0
    6.9865    3.6809    0.0000 H   0  0  0  0  0  0  0  0  0  0  0  0
    7.0460    4.5557    0.0000 H   0  0  0  0  0  0  0  0  0  0  0  0
    6.1712    4.6152    0.0000 H   0  0  0  0  0  0  0  0  0  0  0  0
   10.6886    4.1645    0.0000 H   0  0  0  0  0  0  0  0  0  0  0  0
    1.7858    0.5265    0.0000 H   0  0  0  0  0  0  0  0  0  0  0  0
    1.4182   -0.2696    0.0000 H   0  0  0  0  0  0  0  0  0  0  0  0
    2.2142   -0.6371    0.0000 H   0  0  0  0  0  0  0  0  0  0  0  0
    9.6526    0.1760    0.0000 H   0  0  0  0  0  0  0  0  0  0  0  0
    8.9437    4.1929    0.0000 H   0  0  0  0  0  0  0  0  0  0  0  0
 19  1  1  1  0  0  0
  1 31  1  0  0  0  0
 18  2  1  6  0  0  0
  2 77  1  0  0  0  0
 22  3  1  6  0  0  0
  3 82  1  0  0  0  0
 24  4  1  6  0  0  0
  4 34  1  0  0  0  0
  5 32  1  0  0  0  0
  5 35  1  0  0  0  0
  6 35  1  0  0  0  0
  6 39  1  0  0  0  0
  7 31  2  0  0  0  0
  8 38  2  0  0  0  0
  9 45  1  0  0  0  0
  9112  1  0  0  0  0
 10 46  1  0  0  0  0
 10116  1  0  0  0  0
 11 47  1  0  0  0  0
 11117  1  0  0  0  0
 12 56  2  0  0  0  0
 13 16  1  0  0  0  0
 13 52  1  0  0  0  0
 13 53  1  0  0  0  0
 14 54  1  0  0  0  0
 14 55  1  0  0  0  0
 14 59  1  0  0  0  0
 15 50  1  0  0  0  0
 15 56  1  0  0  0  0
 15107  1  0  0  0  0
 16 57  2  0  0  0  0
 17 18  1  0  0  0  0
 17 19  1  0  0  0  0
 17 23  1  1  0  0  0
 17 60  1  0  0  0  0
 18 20  1  0  0  0  0
 18 61  1  0  0  0  0
 19 21  1  0  0  0  0
 19 62  1  0  0  0  0
 20 22  1  0  0  0  0
 20 26  1  6  0  0  0
 20 63  1  0  0  0  0
 21 24  1  0  0  0  0
 21 27  1  6  0  0  0
 21 64  1  0  0  0  0
 22 25  1  0  0  0  0
 22 65  1  0  0  0  0
 23 66  1  0  0  0  0
 23 67  1  0  0  0  0
 23 68  1  0  0  0  0
 24 29  1  0  0  0  0
 24 69  1  0  0  0  0
 25 28  1  1  0  0  0
 25 30  1  0  0  0  0
 25 70  1  0  0  0  0
 26 71  1  0  0  0  0
 26 72  1  0  0  0  0
 26 73  1  0  0  0  0
 27 74  1  0  0  0  0
 27 75  1  0  0  0  0
 27 76  1  0  0  0  0
 28 78  1  0  0  0  0
 28 79  1  0  0  0  0
 28 80  1  0  0  0  0
 29 32  2  0  0  0  0
 29 81  1  0  0  0  0
 30 33  2  0  0  0  0
 30 83  1  0  0  0  0
 31 36  1  0  0  0  0
 32 84  1  0  0  0  0
 33 41  1  0  0  0  0
 33 85  1  0  0  0  0
 34 86  1  0  0  0  0
 34 87  1  0  0  0  0
 34 88  1  0  0  0  0
 35 38  1  0  0  0  0
 35 42  1  1  0  0  0
 36 89  1  0  0  0  0
 36 90  1  0  0  0  0
 36 91  1  0  0  0  0
 37 38  1  0  0  0  0
 37 39  2  0  0  0  0
 37 40  1  0  0  0  0
 39 44  1  0  0  0  0
 40 43  1  0  0  0  0
 40 46  2  0  0  0  0
 41 48  2  0  0  0  0
 41 92  1  0  0  0  0
 42 93  1  0  0  0  0
 42 94  1  0  0  0  0
 42 95  1  0  0  0  0
 43 45  1  0  0  0  0
 43 47  2  0  0  0  0
 44 45  2  0  0  0  0
 44 51  1  0  0  0  0
 46 49  1  0  0  0  0
 47 50  1  0  0  0  0
 48 56  1  0  0  0  0
 48 58  1  0  0  0  0
 49 50  2  0  0  0  0
 49 57  1  0  0  0  0
 51100  1  0  0  0  0
 51101  1  0  0  0  0
 51102  1  0  0  0  0
 52 54  1  0  0  0  0
 52 96  1  0  0  0  0
 52 97  1  0  0  0  0
 53 55  1  0  0  0  0
 53 98  1  0  0  0  0
 53 99  1  0  0  0  0
 54103  1  0  0  0  0
 54104  1  0  0  0  0
 55105  1  0  0  0  0
 55106  1  0  0  0  0
 57108  1  0  0  0  0
 58109  1  0  0  0  0
 58110  1  0  0  0  0
 58111  1  0  0  0  0
 59113  1  0  0  0  0
 59114  1  0  0  0  0
 59115  1  0  0  0  0
M  END
> <PUBCHEM_COMPOUND_CID>
135398735

> <PUBCHEM_COMPOUND_CANONICALIZED>
1

> <PUBCHEM_CACTVS_COMPLEXITY>
1620

> <PUBCHEM_CACTVS_HBOND_ACCEPTOR>
15

> <PUBCHEM_CACTVS_HBOND_DONOR>
6

> <PUBCHEM_CACTVS_ROTATABLE_BOND>
5

> <PUBCHEM_CACTVS_SUBSKEYS>
AAADcfB/vAAAAAAAAAAAAAAAAAAAASAAAAA8YIAAAAAAAEjBUAAAHgAYCAAADRzhmAYCzsPABgCoArXzWAKSCAAlIAAYiAFtTNgedzbWtZ+2eWjn7B3c+Yf6/P/O6QADSgAaEADSAAaUADQgAAAAAAAAAA==

> <PUBCHEM_IUPAC_OPENEYE_NAME>
[(7S,9E,11S,12R,13S,14R,15R,16R,17S,18S,19E,21Z)-2,15,17,27,29-pentahydroxy-11-methoxy-3,7,12,14,16,18,22-heptamethyl-26-[(E)-(4-methylpiperazin-1-yl)iminomethyl]-6,23-dioxo-8,30-dioxa-24-azatetracyclo[23.3.1.14,7.05,28]triaconta-1(29),2,4,9,19,21,25,27-octaen-13-yl] acetate

> <PUBCHEM_IUPAC_CAS_NAME>
acetic acid [(7S,9E,11S,12R,13S,14R,15R,16R,17S,18S,19E,21Z)-2,15,17,27,29-pentahydroxy-11-methoxy-3,7,12,14,16,18,22-heptamethyl-26-[(E)-(4-methyl-1-piperazinyl)iminomethyl]-6,23-dioxo-8,30-dioxa-24-azatetracyclo[23.3.1.14,7.05,28]triaconta-1(29),2,4,9,19,21,25,27-octaen-13-yl] ester

> <PUBCHEM_IUPAC_NAME_MARKUP>
[(7<I>S</I>,9<I>E</I>,11<I>S</I>,12<I>R</I>,13<I>S</I>,14<I>R</I>,15<I>R</I>,16<I>R</I>,17<I>S</I>,18<I>S</I>,19<I>E</I>,21<I>Z</I>)-2,15,17,27,29-pentahydroxy-11-methoxy-3,7,12,14,16,18,22-heptamethyl-26-[(<I>E</I>)-(4-methylpiperazin-1-yl)iminomethyl]-6,23-dioxo-8,30-dioxa-24-azatetracyclo[23.3.1.1<SUP>4,7</SUP>.0<SUP>5,28</SUP>]triaconta-1(29),2,4,9,19,21,25,27-octaen-13-yl] acetate

> <PUBCHEM_IUPAC_NAME>
[(7S,9E,11S,12R,13S,14R,15R,16R,17S,18S,19E,21Z)-2,15,17,27,29-pentahydroxy-11-methoxy-3,7,12,14,16,18,22-heptamethyl-26-[(E)-(4-methylpiperazin-1-yl)iminomethyl]-6,23-dioxo-8,30-dioxa-24-azatetracyclo[23.3.1.14,7.05,28]triaconta-1(29),2,4,9,19,21,25,27-octaen-13-yl] acetate

> <PUBCHEM_IUPAC_SYSTEMATIC_NAME>
[(7S,9E,11S,12R,13S,14R,15R,16R,17S,18S,19E,21Z)-11-methoxy-3,7,12,14,16,18,22-heptamethyl-26-[(E)-(4-methylpiperazin-1-yl)iminomethyl]-2,15,17,27,29-pentakis(oxidanyl)-6,23-bis(oxidanylidene)-8,30-dioxa-24-azatetracyclo[23.3.1.14,7.05,28]triaconta-1(29),2,4,9,19,21,25,27-octaen-13-yl] ethanoate

> <PUBCHEM_IUPAC_TRADITIONAL_NAME>
acetic acid [(7S,9E,11S,12R,13S,14R,15R,16R,17S,18S,19E,21Z)-2,15,17,27,29-pentahydroxy-6,23-diketo-11-methoxy-3,7,12,14,16,18,22-heptamethyl-26-[(E)-(4-methylpiperazino)iminomethyl]-8,30-dioxa-24-azatetracyclo[23.3.1.14,7.05,28]triaconta-1(29),2,4,9,19,21,25,27-octaen-13-yl] ester

> <PUBCHEM_IUPAC_INCHI>
InChI=1S/C43H58N4O12/c1-21-12-11-13-22(2)42(55)45-33-28(20-44-47-17-15-46(9)16-18-47)37(52)30-31(38(33)53)36(51)26(6)40-32(30)41(54)43(8,59-40)57-19-14-29(56-10)23(3)39(58-27(7)48)25(5)35(50)24(4)34(21)49/h11-14,19-21,23-25,29,34-35,39,49-53H,15-18H2,1-10H3,(H,45,55)/b12-11+,19-14+,22-13-,44-20+/t21-,23+,24+,25+,29-,34-,35+,39+,43-/m0/s1

> <PUBCHEM_IUPAC_INCHIKEY>
JQXXHWHPUNPDRT-WLSIYKJHSA-N

> <PUBCHEM_XLOGP3_AA>
4.9

> <PUBCHEM_EXACT_MASS>
822.405123

> <PUBCHEM_MOLECULAR_FORMULA>
C43H58N4O12

> <PUBCHEM_MOLECULAR_WEIGHT>
822.9

> <PUBCHEM_OPENEYE_CAN_SMILES>
CC1C=CC=C(C(=O)NC2=C(C(=C3C(=C2O)C(=C(C4=C3C(=O)C(O4)(OC=CC(C(C(C(C(C(C1O)C)O)C)OC(=O)C)C)OC)C)C)O)O)C=NN5CCN(CC5)C)C

> <PUBCHEM_OPENEYE_ISO_SMILES>
C[C@H]1/C=C/C=C(\C(=O)NC2=C(C(=C3C(=C2O)C(=C(C4=C3C(=O)[C@](O4)(O/C=C/[C@@H]([C@H]([C@H]([C@@H]([C@@H]([C@@H]([C@H]1O)C)O)C)OC(=O)C)C)OC)C)C)O)O)/C=N/N5CCN(CC5)C)/C

> <PUBCHEM_CACTVS_TPSA>
220

> <PUBCHEM_MONOISOTOPIC_WEIGHT>
822.405123

> <PUBCHEM_TOTAL_CHARGE>
0

> <PUBCHEM_HEAVY_ATOM_COUNT>
59

> <PUBCHEM_ATOM_DEF_STEREO_COUNT>
9

> <PUBCHEM_ATOM_UDEF_STEREO_COUNT>
0

> <PUBCHEM_BOND_DEF_STEREO_COUNT>
4

> <PUBCHEM_BOND_UDEF_STEREO_COUNT>
0

> <PUBCHEM_ISOTOPIC_ATOM_COUNT>
0

> <PUBCHEM_COMPONENT_COUNT>
1

> <PUBCHEM_CACTVS_TAUTO_COUNT>
-1

> <PUBCHEM_COORDINATE_TYPE>
1
5
255

> <PUBCHEM_BONDANNOTATIONS>
19  1  5
17  23  5
18  2  6
20  26  6
21  27  6
25  28  5
22  3  6
35  42  5
37  39  8
37  40  8
39  44  8
24  4  6
40  43  8
40  46  8
43  45  8
43  47  8
44  45  8
46  49  8
47  50  8
49  50  8

$$$$
135398658
  -OEChem-04052116402D

 51 53  0     1  0  0  0  0  0999 V2000
   15.5875   -0.2771    0.0000 O   0  0  0  0  0  0  0  0  0  0  0  0
   12.1196   -1.2637    0.0000 O   0  0  0  0  0  0  0  0  0  0  0  0
   14.7273    1.2262    0.0000 O   0  0  0  0  0  0  0  0  0  0  0  0
   15.5759   -3.2771    0.0000 O   0  0  0  0  0  0  0  0  0  0  0  0
   13.8439   -3.2704    0.0000 O   0  0  0  0  0  0  0  0  0  0  0  0
    4.2690    0.2771    0.0000 O   0  0  0  0  0  0  0  0  0  0  0  0
   12.9914    0.2329    0.0000 N   0  0  0  0  0  0  0  0  0  0  0  0
    8.6671    1.7496    0.0000 N   0  0  0  0  0  0  0  0  0  0  0  0
    6.0290    1.2424    0.0000 N   0  0  0  0  0  0  0  0  0  0  0  0
    6.0290    3.3117    0.0000 N   0  0  0  0  0  0  0  0  0  0  0  0
    3.4030    1.7771    0.0000 N   0  0  0  0  0  0  0  0  0  0  0  0
    4.2690    3.2771    0.0000 N   0  0  0  0  0  0  0  0  0  0  0  0
    2.5369    3.2771    0.0000 N   0  0  0  0  0  0  0  0  0  0  0  0
   13.8555   -0.2704    0.0000 C   0  0  1  0  0  0  0  0  0  0  0  0
   13.8516   -1.2704    0.0000 C   0  0  0  0  0  0  0  0  0  0  0  0
   14.7157   -1.7738    0.0000 C   0  0  0  0  0  0  0  0  0  0  0  0
   12.1234   -0.2638    0.0000 C   0  0  0  0  0  0  0  0  0  0  0  0
   11.2593    0.2396    0.0000 C   0  0  0  0  0  0  0  0  0  0  0  0
   14.7234    0.2262    0.0000 C   0  0  0  0  0  0  0  0  0  0  0  0
    9.5312    1.2462    0.0000 C   0  0  0  0  0  0  0  0  0  0  0  0
    7.7991    1.2529    0.0000 C   0  0  0  0  0  0  0  0  0  0  0  0
   10.3914   -0.2571    0.0000 C   0  0  0  0  0  0  0  0  0  0  0  0
   11.2632    1.2396    0.0000 C   0  0  0  0  0  0  0  0  0  0  0  0
    9.5273    0.2463    0.0000 C   0  0  0  0  0  0  0  0  0  0  0  0
   10.3991    1.7429    0.0000 C   0  0  0  0  0  0  0  0  0  0  0  0
   14.7118   -2.7738    0.0000 C   0  0  0  0  0  0  0  0  0  0  0  0
    6.9350    1.7563    0.0000 C   0  0  0  0  0  0  0  0  0  0  0  0
    5.1350    1.7771    0.0000 C   0  0  0  0  0  0  0  0  0  0  0  0
    6.9350    2.7979    0.0000 C   0  0  0  0  0  0  0  0  0  0  0  0
    5.1350    2.7771    0.0000 C   0  0  0  0  0  0  0  0  0  0  0  0
    4.2690    1.2771    0.0000 C   0  0  0  0  0  0  0  0  0  0  0  0
    3.4030    2.7771    0.0000 C   0  0  0  0  0  0  0  0  0  0  0  0
   13.8579    0.3496    0.0000 H   0  0  0  0  0  0  0  0  0  0  0  0
   13.2414   -1.1604    0.0000 H   0  0  0  0  0  0  0  0  0  0  0  0
   13.6373   -1.8522    0.0000 H   0  0  0  0  0  0  0  0  0  0  0  0
   15.3259   -1.8838    0.0000 H   0  0  0  0  0  0  0  0  0  0  0  0
   14.9300   -1.1920    0.0000 H   0  0  0  0  0  0  0  0  0  0  0  0
   12.9938    0.8529    0.0000 H   0  0  0  0  0  0  0  0  0  0  0  0
    7.3988    0.7795    0.0000 H   0  0  0  0  0  0  0  0  0  0  0  0
    8.1958    0.7764    0.0000 H   0  0  0  0  0  0  0  0  0  0  0  0
   10.3890   -0.8771    0.0000 H   0  0  0  0  0  0  0  0  0  0  0  0
   11.8013    1.5475    0.0000 H   0  0  0  0  0  0  0  0  0  0  0  0
    8.6694    2.3696    0.0000 H   0  0  0  0  0  0  0  0  0  0  0  0
    8.9892   -0.0617    0.0000 H   0  0  0  0  0  0  0  0  0  0  0  0
   10.4015    2.3629    0.0000 H   0  0  0  0  0  0  0  0  0  0  0  0
    7.4708    3.1100    0.0000 H   0  0  0  0  0  0  0  0  0  0  0  0
   16.1256    0.0308    0.0000 H   0  0  0  0  0  0  0  0  0  0  0  0
    2.8660    1.4671    0.0000 H   0  0  0  0  0  0  0  0  0  0  0  0
   15.5735   -3.8971    0.0000 H   0  0  0  0  0  0  0  0  0  0  0  0
    2.5369    3.8971    0.0000 H   0  0  0  0  0  0  0  0  0  0  0  0
    2.0000    2.9671    0.0000 H   0  0  0  0  0  0  0  0  0  0  0  0
  1 19  1  0  0  0  0
  1 47  1  0  0  0  0
  2 17  2  0  0  0  0
  3 19  2  0  0  0  0
  4 26  1  0  0  0  0
  4 49  1  0  0  0  0
  5 26  2  0  0  0  0
  6 31  2  0  0  0  0
 14  7  1  6  0  0  0
  7 17  1  0  0  0  0
  7 38  1  0  0  0  0
  8 20  1  0  0  0  0
  8 21  1  0  0  0  0
  8 43  1  0  0  0  0
  9 27  1  0  0  0  0
  9 28  2  0  0  0  0
 10 29  1  0  0  0  0
 10 30  2  0  0  0  0
 11 31  1  0  0  0  0
 11 32  1  0  0  0  0
 11 48  1  0  0  0  0
 12 30  1  0  0  0  0
 12 32  2  0  0  0  0
 13 32  1  0  0  0  0
 13 50  1  0  0  0  0
 13 51  1  0  0  0  0
 14 15  1  0  0  0  0
 14 19  1  0  0  0  0
 14 33  1  0  0  0  0
 15 16  1  0  0  0  0
 15 34  1  0  0  0  0
 15 35  1  0  0  0  0
 16 26  1  0  0  0  0
 16 36  1  0  0  0  0
 16 37  1  0  0  0  0
 17 18  1  0  0  0  0
 18 22  2  0  0  0  0
 18 23  1  0  0  0  0
 20 24  2  0  0  0  0
 20 25  1  0  0  0  0
 21 27  1  0  0  0  0
 21 39  1  0  0  0  0
 21 40  1  0  0  0  0
 22 24  1  0  0  0  0
 22 41  1  0  0  0  0
 23 25  2  0  0  0  0
 23 42  1  0  0  0  0
 24 44  1  0  0  0  0
 25 45  1  0  0  0  0
 27 29  2  0  0  0  0
 28 30  1  0  0  0  0
 28 31  1  0  0  0  0
 29 46  1  0  0  0  0
M  END
> <PUBCHEM_COMPOUND_CID>
135398658

> <PUBCHEM_COMPOUND_CANONICALIZED>
1

> <PUBCHEM_CACTVS_COMPLEXITY>
767

> <PUBCHEM_CACTVS_HBOND_ACCEPTOR>
10

> <PUBCHEM_CACTVS_HBOND_DONOR>
6

> <PUBCHEM_CACTVS_ROTATABLE_BOND>
9

> <PUBCHEM_CACTVS_SUBSKEYS>
AAADceB7uAAAAAAAAAAAAAAAAAAAAAAAAAA8QIAAAAAAAACBwAAAHgAQCAAADCjBngQ9+JLIEgCoAzf3fACCgC03EiAJ2IG4dMiKYHrA3bGUYYhklwLYyee8rwCeCAAAAAAAAAAQAAAAAAAAAAAAAAAAAA==

> <PUBCHEM_IUPAC_OPENEYE_NAME>
(2S)-2-[[4-[(2-amino-4-oxo-3H-pteridin-6-yl)methylamino]benzoyl]amino]pentanedioic acid

> <PUBCHEM_IUPAC_CAS_NAME>
(2S)-2-[[[4-[(2-amino-4-oxo-3H-pteridin-6-yl)methylamino]phenyl]-oxomethyl]amino]pentanedioic acid

> <PUBCHEM_IUPAC_NAME_MARKUP>
(2<I>S</I>)-2-[[4-[(2-amino-4-oxo-3<I>H</I>-pteridin-6-yl)methylamino]benzoyl]amino]pentanedioic acid

> <PUBCHEM_IUPAC_NAME>
(2S)-2-[[4-[(2-amino-4-oxo-3H-pteridin-6-yl)methylamino]benzoyl]amino]pentanedioic acid

> <PUBCHEM_IUPAC_SYSTEMATIC_NAME>
(2S)-2-[[4-[(2-azanyl-4-oxidanylidene-3H-pteridin-6-yl)methylamino]phenyl]carbonylamino]pentanedioic acid

> <PUBCHEM_IUPAC_TRADITIONAL_NAME>
(2S)-2-[[4-[(2-amino-4-keto-3H-pteridin-6-yl)methylamino]benzoyl]amino]glutaric acid

> <PUBCHEM_IUPAC_INCHI>
InChI=1S/C19H19N7O6/c20-19-25-15-14(17(30)26-19)23-11(8-22-15)7-21-10-3-1-9(2-4-10)16(29)24-12(18(31)32)5-6-13(27)28/h1-4,8,12,21H,5-7H2,(H,24,29)(H,27,28)(H,31,32)(H3,20,22,25,26,30)/t12-/m0/s1

> <PUBCHEM_IUPAC_INCHIKEY>
OVBPIULPVIDEAO-LBPRGKRZSA-N

> <PUBCHEM_XLOGP3_AA>
-1.1

> <PUBCHEM_EXACT_MASS>
441.139681

> <PUBCHEM_MOLECULAR_FORMULA>
C19H19N7O6

> <PUBCHEM_MOLECULAR_WEIGHT>
441.4

> <PUBCHEM_OPENEYE_CAN_SMILES>
C1=CC(=CC=C1C(=O)NC(CCC(=O)O)C(=O)O)NCC2=CN=C3C(=N2)C(=O)NC(=N3)N

> <PUBCHEM_OPENEYE_ISO_SMILES>
C1=CC(=CC=C1C(=O)N[C@@H](CCC(=O)O)C(=O)O)NCC2=CN=C3C(=N2)C(=O)NC(=N3)N

> <PUBCHEM_CACTVS_TPSA>
209

> <PUBCHEM_MONOISOTOPIC_WEIGHT>
441.139681

> <PUBCHEM_TOTAL_CHARGE>
0

> <PUBCHEM_HEAVY_ATOM_COUNT>
32

> <PUBCHEM_ATOM_DEF_STEREO_COUNT>
1

> <PUBCHEM_ATOM_UDEF_STEREO_COUNT>
0

> <PUBCHEM_BOND_DEF_STEREO_COUNT>
0

> <PUBCHEM_BOND_UDEF_STEREO_COUNT>
0

> <PUBCHEM_ISOTOPIC_ATOM_COUNT>
0

> <PUBCHEM_COMPONENT_COUNT>
1

> <PUBCHEM_CACTVS_TAUTO_COUNT>
-1

> <PUBCHEM_COORDINATE_TYPE>
1
5
255

> <PUBCHEM_BONDANNOTATIONS>
10  29  8
10  30  8
11  31  8
11  32  8
12  30  8
12  32  8
18  22  8
18  23  8
20  24  8
20  25  8
22  24  8
23  25  8
27  29  8
28  30  8
28  31  8
14  7  6
9  27  8
9  28  8

$$$$
124204223
  -OEChem-04052116402D

 23 21  0     0  0  0  0  0  0999 V2000
    0.0000    3.0000    0.0000 Cl  0  0  0  0  0  0  0  0  0  0  0  0
    1.7320    0.0000    0.0000 Cl  0  0  0  0  0  0  0  0  0  0  0  0
    5.7510    1.8100    0.0000 Na  0  4  0  0  0  0  0  0  0  0  0  0
    1.7320    4.0000    0.0000 O   0  0  0  0  0  0  0  0  0  0  0  0
    3.4641    6.0000    0.0000 O   0  0  0  0  0  0  0  0  0  0  0  0
    1.7320    6.0000    0.0000 O   0  0  0  0  0  0  0  0  0  0  0  0
    6.0010    4.3100    0.0000 O   0  0  0  0  0  0  0  0  0  0  0  0
    1.7320    3.0000    0.0000 C   0  0  0  0  0  0  0  0  0  0  0  0
    0.8660    2.5000    0.0000 C   0  0  0  0  0  0  0  0  0  0  0  0
    2.5981    2.5000    0.0000 C   0  0  0  0  0  0  0  0  0  0  0  0
    0.8660    1.5000    0.0000 C   0  0  0  0  0  0  0  0  0  0  0  0
    2.5981    1.5000    0.0000 C   0  0  0  0  0  0  0  0  0  0  0  0
    1.7320    1.0000    0.0000 C   0  0  0  0  0  0  0  0  0  0  0  0
    2.5981    4.5000    0.0000 C   0  0  0  0  0  0  0  0  0  0  0  0
    2.5981    5.5000    0.0000 C   0  0  0  0  0  0  0  0  0  0  0  0
    3.1350    2.8100    0.0000 H   0  0  0  0  0  0  0  0  0  0  0  0
    0.3291    1.1900    0.0000 H   0  0  0  0  0  0  0  0  0  0  0  0
    3.1350    1.1900    0.0000 H   0  0  0  0  0  0  0  0  0  0  0  0
    2.8101    3.9174    0.0000 H   0  0  0  0  0  0  0  0  0  0  0  0
    3.2087    4.6077    0.0000 H   0  0  0  0  0  0  0  0  0  0  0  0
    3.4641    6.6200    0.0000 H   0  0  0  0  0  0  0  0  0  0  0  0
    6.5380    4.6200    0.0000 H   0  0  0  0  0  0  0  0  0  0  0  0
    5.4641    4.6200    0.0000 H   0  0  0  0  0  0  0  0  0  0  0  0
  1  9  1  0  0  0  0
  2 13  1  0  0  0  0
  4  8  1  0  0  0  0
  4 14  1  0  0  0  0
  5 15  1  0  0  0  0
  5 21  1  0  0  0  0
  6 15  2  0  0  0  0
  7 22  1  0  0  0  0
  7 23  1  0  0  0  0
  8  9  2  0  0  0  0
  8 10  1  0  0  0  0
  9 11  1  0  0  0  0
 10 12  2  0  0  0  0
 10 16  1  0  0  0  0
 11 13  2  0  0  0  0
 11 17  1  0  0  0  0
 12 13  1  0  0  0  0
 12 18  1  0  0  0  0
 14 15  1  0  0  0  0
 14 19  1  0  0  0  0
 14 20  1  0  0  0  0
M  RAD  1   3   2
M  END
> <PUBCHEM_COMPOUND_CID>
124204223

> <PUBCHEM_COMPOUND_CANONICALIZED>
1

> <PUBCHEM_CACTVS_COMPLEXITY>
186

> <PUBCHEM_CACTVS_HBOND_ACCEPTOR>
4

> <PUBCHEM_CACTVS_HBOND_DONOR>
2

> <PUBCHEM_CACTVS_ROTATABLE_BOND>
3

> <PUBCHEM_CACTVS_SUBSKEYS>
AAADccBwOCAGAAAAAAAAAAAAAAAAAAAAAAAwAAAAAAAAAAABAAAAGgIACAAACAagkCIwDoAABgCIACDSCAICCAAgJUAIiABGC4gNJiOFMx6COCCkwBELqAeAQAAAACAAAACACAAAQAAAAQAQAAAAAAAAAA==

> <PUBCHEM_IUPAC_INCHI>
InChI=1S/C8H6Cl2O3.Na.H2O/c9-5-1-2-7(6(10)3-5)13-4-8(11)12;;/h1-3H,4H2,(H,11,12);;1H2

> <PUBCHEM_IUPAC_INCHIKEY>
JXHUJQWKJUFZSW-UHFFFAOYSA-N

> <PUBCHEM_EXACT_MASS>
260.969733

> <PUBCHEM_MOLECULAR_FORMULA>
C8H8Cl2NaO4

> <PUBCHEM_MOLECULAR_WEIGHT>
262.04

> <PUBCHEM_OPENEYE_CAN_SMILES>
C1=CC(=C(C=C1Cl)Cl)OCC(=O)O.O.[Na]

> <PUBCHEM_OPENEYE_ISO_SMILES>
C1=CC(=C(C=C1Cl)Cl)OCC(=O)O.O.[Na]

> <PUBCHEM_CACTVS_TPSA>
47.5

> <PUBCHEM_MONOISOTOPIC_WEIGHT>
260.969733

> <PUBCHEM_TOTAL_CHARGE>
0

> <PUBCHEM_HEAVY_ATOM_COUNT>
15

> <PUBCHEM_ATOM_DEF_STEREO_COUNT>
0

> <PUBCHEM_ATOM_UDEF_STEREO_COUNT>
0

> <PUBCHEM_BOND_DEF_STEREO_COUNT>
0

> <PUBCHEM_BOND_UDEF_STEREO_COUNT>
0

> <PUBCHEM_ISOTOPIC_ATOM_COUNT>
0

> <PUBCHEM_COMPONENT_COUNT>
3

> <PUBCHEM_CACTVS_TAUTO_COUNT>
-1

> <PUBCHEM_COORDINATE_TYPE>
1
5
255

> <PUBCHEM_BONDANNOTATIONS>
10  12  8
11  13  8
12  13  8
8  10  8
8  9  8
9  11  8

$$$$
124202565
  -OEChem-04052116402D

 35 23  0     0  0  0  0  0  0999 V2000
    1.4030    1.0000    0.0000 Si  0  0  0  0  0  0  0  0  0  0  0  0
    5.0929    3.0000    0.0000 Na  0  4  0  0  0  0  0  0  0  0  0  0
    8.1667    4.2500    0.0000 Na  0  4  0  0  0  0  0  0  0  0  0  0
    2.2690    1.5000    0.0000 O   0  0  0  0  0  0  0  0  0  0  0  0
    0.5369    1.5000    0.0000 O   0  0  0  0  0  0  0  0  0  0  0  0
    1.4030    0.0000    0.0000 O   0  0  0  0  0  0  0  0  0  0  0  0
    1.4030    3.5000    0.0000 O   0  0  0  0  0  0  0  0  0  0  0  0
   11.4906    4.2500    0.0000 O   0  0  0  0  0  0  0  0  0  0  0  0
    5.3429    5.5000    0.0000 O   0  0  0  0  0  0  0  0  0  0  0  0
    8.4167    6.7500    0.0000 O   0  0  0  0  0  0  0  0  0  0  0  0
   11.4906    6.7500    0.0000 O   0  0  0  0  0  0  0  0  0  0  0  0
    1.4030    6.0000    0.0000 O   0  0  0  0  0  0  0  0  0  0  0  0
    1.4030    8.5000    0.0000 O   0  0  0  0  0  0  0  0  0  0  0  0
    1.4030   11.0000    0.0000 O   0  0  0  0  0  0  0  0  0  0  0  0
    5.3429    8.0000    0.0000 O   0  0  0  0  0  0  0  0  0  0  0  0
    2.8059    1.1900    0.0000 H   0  0  0  0  0  0  0  0  0  0  0  0
    0.0000    1.1900    0.0000 H   0  0  0  0  0  0  0  0  0  0  0  0
    1.9399    3.8100    0.0000 H   0  0  0  0  0  0  0  0  0  0  0  0
    0.8660    3.8100    0.0000 H   0  0  0  0  0  0  0  0  0  0  0  0
   12.0275    4.5600    0.0000 H   0  0  0  0  0  0  0  0  0  0  0  0
   10.9537    4.5600    0.0000 H   0  0  0  0  0  0  0  0  0  0  0  0
    5.8798    5.8100    0.0000 H   0  0  0  0  0  0  0  0  0  0  0  0
    4.8059    5.8100    0.0000 H   0  0  0  0  0  0  0  0  0  0  0  0
    8.9537    7.0600    0.0000 H   0  0  0  0  0  0  0  0  0  0  0  0
    7.8798    7.0600    0.0000 H   0  0  0  0  0  0  0  0  0  0  0  0
   12.0275    7.0600    0.0000 H   0  0  0  0  0  0  0  0  0  0  0  0
   10.9537    7.0600    0.0000 H   0  0  0  0  0  0  0  0  0  0  0  0
    1.9399    6.3100    0.0000 H   0  0  0  0  0  0  0  0  0  0  0  0
    0.8660    6.3100    0.0000 H   0  0  0  0  0  0  0  0  0  0  0  0
    1.9399    8.8100    0.0000 H   0  0  0  0  0  0  0  0  0  0  0  0
    0.8660    8.8100    0.0000 H   0  0  0  0  0  0  0  0  0  0  0  0
    1.9399   11.3100    0.0000 H   0  0  0  0  0  0  0  0  0  0  0  0
    0.8660   11.3100    0.0000 H   0  0  0  0  0  0  0  0  0  0  0  0
    5.8798    8.3100    0.0000 H   0  0  0  0  0  0  0  0  0  0  0  0
    4.8059    8.3100    0.0000 H   0  0  0  0  0  0  0  0  0  0  0  0
  1  4  1  0  0  0  0
  1  5  1  0  0  0  0
  1  6  2  0  0  0  0
  4 16  1  0  0  0  0
  5 17  1  0  0  0  0
  7 18  1  0  0  0  0
  7 19  1  0  0  0  0
  8 20  1  0  0  0  0
  8 21  1  0  0  0  0
  9 22  1  0  0  0  0
  9 23  1  0  0  0  0
 10 24  1  0  0  0  0
 10 25  1  0  0  0  0
 11 26  1  0  0  0  0
 11 27  1  0  0  0  0
 12 28  1  0  0  0  0
 12 29  1  0  0  0  0
 13 30  1  0  0  0  0
 13 31  1  0  0  0  0
 14 32  1  0  0  0  0
 14 33  1  0  0  0  0
 15 34  1  0  0  0  0
 15 35  1  0  0  0  0
M  RAD  2   2   2   3   2
M  END
> <PUBCHEM_COMPOUND_CID>
124202565

> <PUBCHEM_COMPOUND_CANONICALIZED>
1

> <PUBCHEM_CACTVS_COMPLEXITY>
26.3

> <PUBCHEM_CACTVS_HBOND_ACCEPTOR>
12

> <PUBCHEM_CACTVS_HBOND_DONOR>
11

> <PUBCHEM_CACTVS_ROTATABLE_BOND>
0

> <PUBCHEM_CACTVS_SUBSKEYS>
AAADceAAPDgAAAAAAAAAAAAAAAAAAAAAAAAAAAAAAAAAAAAAAAAAAAAACEAAAAAAAAAAAAAAAAAAAAAAAAAAAAAAAAAAAAAAAAAAAAAAAAAAAAAAAAAAAAAAAAAAAAAAAAAAAAAAAAAAAAAAAAAAAAAAAA==

> <PUBCHEM_IUPAC_INCHI>
InChI=1S/2Na.H2O3Si.9H2O/c;;1-4(2)3;;;;;;;;;/h;;1-2H;9*1H2

> <PUBCHEM_IUPAC_INCHIKEY>
INVJGWSQCKLSAO-UHFFFAOYSA-N

> <PUBCHEM_EXACT_MASS>
286.051941

> <PUBCHEM_MOLECULAR_FORMULA>
H20Na2O12Si

> <PUBCHEM_MOLECULAR_WEIGHT>
286.22

> <PUBCHEM_OPENEYE_CAN_SMILES>
O.O.O.O.O.O.O.O.O.O[Si](=O)O.[Na].[Na]

> <PUBCHEM_OPENEYE_ISO_SMILES>
O.O.O.O.O.O.O.O.O.O[Si](=O)O.[Na].[Na]

> <PUBCHEM_CACTVS_TPSA>
66.5

> <PUBCHEM_MONOISOTOPIC_WEIGHT>
286.051941

> <PUBCHEM_TOTAL_CHARGE>
0

> <PUBCHEM_HEAVY_ATOM_COUNT>
15

> <PUBCHEM_ATOM_DEF_STEREO_COUNT>
0

> <PUBCHEM_ATOM_UDEF_STEREO_COUNT>
0

> <PUBCHEM_BOND_DEF_STEREO_COUNT>
0

> <PUBCHEM_BOND_UDEF_STEREO_COUNT>
0

> <PUBCHEM_ISOTOPIC_ATOM_COUNT>
0

> <PUBCHEM_COMPONENT_COUNT>
12

> <PUBCHEM_CACTVS_TAUTO_COUNT>
-1

> <PUBCHEM_COORDINATE_TYPE>
1
5
255

$$$$
124202560
  -OEChem-04052116402D

  8  5  0     0  0  0  0  0  0999 V2000
    3.9030    1.0000    0.0000 Se  0  0  0  0  0  0  0  0  0  0  0  0
    0.0000    1.7500    0.0000 Na  0  4  0  0  0  0  0  0  0  0  0  0
    3.6530    3.5000    0.0000 Na  0  4  0  0  0  0  0  0  0  0  0  0
    4.7690    1.5000    0.0000 O   0  0  0  0  0  0  0  0  0  0  0  0
    3.0369    1.5000    0.0000 O   0  0  0  0  0  0  0  0  0  0  0  0
    3.9030    0.0000    0.0000 O   0  0  0  0  0  0  0  0  0  0  0  0
    5.3059    1.1900    0.0000 H   0  0  0  0  0  0  0  0  0  0  0  0
    2.5000    1.1900    0.0000 H   0  0  0  0  0  0  0  0  0  0  0  0
  1  4  1  0  0  0  0
  1  5  1  0  0  0  0
  1  6  2  0  0  0  0
  4  7  1  0  0  0  0
  5  8  1  0  0  0  0
M  RAD  2   2   2   3   2
M  END
> <PUBCHEM_COMPOUND_CID>
124202560

> <PUBCHEM_COMPOUND_CANONICALIZED>
1

> <PUBCHEM_CACTVS_COMPLEXITY>
26.3

> <PUBCHEM_CACTVS_HBOND_ACCEPTOR>
3

> <PUBCHEM_CACTVS_HBOND_DONOR>
2

> <PUBCHEM_CACTVS_ROTATABLE_BOND>
0

> <PUBCHEM_CACTVS_SUBSKEYS>
AAADcQAAMDAAAAAAIAAAAAAAAAAAAAAAAAAAAAAAAAAAAAAAAAAAAAAACAAAAAAAAAAAAAAAAAAAAAAAAAAAAAAAAAAAAAAAAAAAAAAAAAAAAAAAAAAAAAAAAAAAAAAAAAAAAAAAAAAAAAAAAAAAAAAAAA==

> <PUBCHEM_IUPAC_INCHI>
InChI=1S/2Na.H2O3Se/c;;1-4(2)3/h;;(H2,1,2,3)

> <PUBCHEM_IUPAC_INCHIKEY>
CQRWCHXOXPSKFW-UHFFFAOYSA-N

> <PUBCHEM_EXACT_MASS>
175.89645

> <PUBCHEM_MOLECULAR_FORMULA>
H2Na2O3Se

> <PUBCHEM_MOLECULAR_WEIGHT>
174.96

> <PUBCHEM_OPENEYE_CAN_SMILES>
O[Se](=O)O.[Na].[Na]

> <PUBCHEM_OPENEYE_ISO_SMILES>
O[Se](=O)O.[Na].[Na]

> <PUBCHEM_CACTVS_TPSA>
57.5

> <PUBCHEM_MONOISOTOPIC_WEIGHT>
175.89645

> <PUBCHEM_TOTAL_CHARGE>
0

> <PUBCHEM_HEAVY_ATOM_COUNT>
6

> <PUBCHEM_ATOM_DEF_STEREO_COUNT>
0

> <PUBCHEM_ATOM_UDEF_STEREO_COUNT>
0

> <PUBCHEM_BOND_DEF_STEREO_COUNT>
0

> <PUBCHEM_BOND_UDEF_STEREO_COUNT>
0

> <PUBCHEM_ISOTOPIC_ATOM_COUNT>
0

> <PUBCHEM_COMPONENT_COUNT>
3

> <PUBCHEM_CACTVS_TAUTO_COUNT>
-1

> <PUBCHEM_COORDINATE_TYPE>
1
5
255

$$$$
124202506
  -OEChem-04052116402D

 29 20  0     0  0  0  0  0  0999 V2000
    3.0739    5.6160    0.0000 Zn  0  0  0  0  0  0  0  0  0  0  0  0
    6.9768    0.8660    0.0000 S   0  0  0  0  0  0  0  0  0  0  0  0
    7.8429    1.3660    0.0000 O   0  0  0  0  0  0  0  0  0  0  0  0
    6.1108    0.3660    0.0000 O   0  0  0  0  0  0  0  0  0  0  0  0
    6.4768    1.7320    0.0000 O   0  0  0  0  0  0  0  0  0  0  0  0
    7.4768    0.0000    0.0000 O   0  0  0  0  0  0  0  0  0  0  0  0
    0.5369    4.3660    0.0000 O   0  0  0  0  0  0  0  0  0  0  0  0
    0.5369    6.8660    0.0000 O   0  0  0  0  0  0  0  0  0  0  0  0
    6.9768    3.7320    0.0000 O   0  0  0  0  0  0  0  0  0  0  0  0
    6.9768    6.2320    0.0000 O   0  0  0  0  0  0  0  0  0  0  0  0
    6.9768    8.7320    0.0000 O   0  0  0  0  0  0  0  0  0  0  0  0
    6.9768   11.2321    0.0000 O   0  0  0  0  0  0  0  0  0  0  0  0
   10.9167    5.6160    0.0000 O   0  0  0  0  0  0  0  0  0  0  0  0
    8.3798    1.0560    0.0000 H   0  0  0  0  0  0  0  0  0  0  0  0
    5.5739    0.6760    0.0000 H   0  0  0  0  0  0  0  0  0  0  0  0
    1.0739    4.6760    0.0000 H   0  0  0  0  0  0  0  0  0  0  0  0
    0.0000    4.6760    0.0000 H   0  0  0  0  0  0  0  0  0  0  0  0
    1.0739    7.1760    0.0000 H   0  0  0  0  0  0  0  0  0  0  0  0
    0.0000    7.1760    0.0000 H   0  0  0  0  0  0  0  0  0  0  0  0
    7.5138    4.0420    0.0000 H   0  0  0  0  0  0  0  0  0  0  0  0
    6.4399    4.0420    0.0000 H   0  0  0  0  0  0  0  0  0  0  0  0
    7.5138    6.5420    0.0000 H   0  0  0  0  0  0  0  0  0  0  0  0
    6.4399    6.5420    0.0000 H   0  0  0  0  0  0  0  0  0  0  0  0
    7.5138    9.0420    0.0000 H   0  0  0  0  0  0  0  0  0  0  0  0
    6.4399    9.0420    0.0000 H   0  0  0  0  0  0  0  0  0  0  0  0
    7.5138   11.5421    0.0000 H   0  0  0  0  0  0  0  0  0  0  0  0
    6.4399   11.5421    0.0000 H   0  0  0  0  0  0  0  0  0  0  0  0
   11.4537    5.9260    0.0000 H   0  0  0  0  0  0  0  0  0  0  0  0
   10.3798    5.9260    0.0000 H   0  0  0  0  0  0  0  0  0  0  0  0
  2  3  1  0  0  0  0
  2  4  1  0  0  0  0
  2  5  2  0  0  0  0
  2  6  2  0  0  0  0
  3 14  1  0  0  0  0
  4 15  1  0  0  0  0
  7 16  1  0  0  0  0
  7 17  1  0  0  0  0
  8 18  1  0  0  0  0
  8 19  1  0  0  0  0
  9 20  1  0  0  0  0
  9 21  1  0  0  0  0
 10 22  1  0  0  0  0
 10 23  1  0  0  0  0
 11 24  1  0  0  0  0
 11 25  1  0  0  0  0
 12 26  1  0  0  0  0
 12 27  1  0  0  0  0
 13 28  1  0  0  0  0
 13 29  1  0  0  0  0
M  END
> <PUBCHEM_COMPOUND_CID>
124202506

> <PUBCHEM_COMPOUND_CANONICALIZED>
1

> <PUBCHEM_CACTVS_COMPLEXITY>
81.3

> <PUBCHEM_CACTVS_HBOND_ACCEPTOR>
11

> <PUBCHEM_CACTVS_HBOND_DONOR>
9

> <PUBCHEM_CACTVS_ROTATABLE_BOND>
0

> <PUBCHEM_CACTVS_SUBSKEYS>
AAADceAAPABAAAACAAAAAAAAAAAAAAAAAAAAAAAAAAAAAAAAAAAAAAAACAAAAAAAAAAAAAAAAIAAAAAAADAAAAAAAAAAAAAAAAAAAAAAAAAAAAAAAAAAAAAAAAAAAAAAAAAAAAAAAAAAAAAAAAAAAAAAAA==

> <PUBCHEM_IUPAC_OPENEYE_NAME>
sulfuric acid;zinc;heptahydrate

> <PUBCHEM_IUPAC_CAS_NAME>
sulfuric acid;zinc;heptahydrate

> <PUBCHEM_IUPAC_NAME_MARKUP>
sulfuric acid;zinc;heptahydrate

> <PUBCHEM_IUPAC_NAME>
sulfuric acid;zinc;heptahydrate

> <PUBCHEM_IUPAC_SYSTEMATIC_NAME>
sulfuric acid;zinc;heptahydrate

> <PUBCHEM_IUPAC_TRADITIONAL_NAME>
sulfuric acid;zinc;heptahydrate

> <PUBCHEM_IUPAC_INCHI>
InChI=1S/H2O4S.7H2O.Zn/c1-5(2,3)4;;;;;;;;/h(H2,1,2,3,4);7*1H2;

> <PUBCHEM_IUPAC_INCHIKEY>
NNZHJLSOHIKBPJ-UHFFFAOYSA-N

> <PUBCHEM_EXACT_MASS>
287.970474

> <PUBCHEM_MOLECULAR_FORMULA>
H16O11SZn

> <PUBCHEM_MOLECULAR_WEIGHT>
289.6

> <PUBCHEM_OPENEYE_CAN_SMILES>
O.O.O.O.O.O.O.OS(=O)(=O)O.[Zn]

> <PUBCHEM_OPENEYE_ISO_SMILES>
O.O.O.O.O.O.O.OS(=O)(=O)O.[Zn]

> <PUBCHEM_CACTVS_TPSA>
90

> <PUBCHEM_MONOISOTOPIC_WEIGHT>
287.970474

> <PUBCHEM_TOTAL_CHARGE>
0

> <PUBCHEM_HEAVY_ATOM_COUNT>
13

> <PUBCHEM_ATOM_DEF_STEREO_COUNT>
0

> <PUBCHEM_ATOM_UDEF_STEREO_COUNT>
0

> <PUBCHEM_BOND_DEF_STEREO_COUNT>
0

> <PUBCHEM_BOND_UDEF_STEREO_COUNT>
0

> <PUBCHEM_ISOTOPIC_ATOM_COUNT>
0

> <PUBCHEM_COMPONENT_COUNT>
9

> <PUBCHEM_CACTVS_TAUTO_COUNT>
-1

> <PUBCHEM_COORDINATE_TYPE>
1
5
255

$$$$
124202496
  -OEChem-04052116402D

 15 10  0     0  0  0  0  0  0999 V2000
    1.4030    1.5000    0.0000 Mo  0  0  0  0  0  0  0  0  0  0  0  0
    1.1530    4.3660    0.0000 Na  0  4  0  0  0  0  0  0  0  0  0  0
    5.0929    0.0000    0.0000 Na  0  4  0  0  0  0  0  0  0  0  0  0
    2.2690    2.0000    0.0000 O   0  0  0  0  0  0  0  0  0  0  0  0
    0.5369    1.0000    0.0000 O   0  0  0  0  0  0  0  0  0  0  0  0
    0.9030    2.3660    0.0000 O   0  0  0  0  0  0  0  0  0  0  0  0
    1.9030    0.6340    0.0000 O   0  0  0  0  0  0  0  0  0  0  0  0
    5.3429    2.5000    0.0000 O   0  0  0  0  0  0  0  0  0  0  0  0
    5.3429    5.0000    0.0000 O   0  0  0  0  0  0  0  0  0  0  0  0
    2.8059    1.6900    0.0000 H   0  0  0  0  0  0  0  0  0  0  0  0
    0.0000    1.3100    0.0000 H   0  0  0  0  0  0  0  0  0  0  0  0
    5.8798    2.8100    0.0000 H   0  0  0  0  0  0  0  0  0  0  0  0
    4.8059    2.8100    0.0000 H   0  0  0  0  0  0  0  0  0  0  0  0
    5.8798    5.3100    0.0000 H   0  0  0  0  0  0  0  0  0  0  0  0
    4.8059    5.3100    0.0000 H   0  0  0  0  0  0  0  0  0  0  0  0
  1  4  1  0  0  0  0
  1  5  1  0  0  0  0
  1  6  2  0  0  0  0
  1  7  2  0  0  0  0
  4 10  1  0  0  0  0
  5 11  1  0  0  0  0
  8 12  1  0  0  0  0
  8 13  1  0  0  0  0
  9 14  1  0  0  0  0
  9 15  1  0  0  0  0
M  RAD  2   2   2   3   2
M  END
> <PUBCHEM_COMPOUND_CID>
124202496

> <PUBCHEM_COMPOUND_CANONICALIZED>
1

> <PUBCHEM_CACTVS_COMPLEXITY>
81.3

> <PUBCHEM_CACTVS_HBOND_ACCEPTOR>
6

> <PUBCHEM_CACTVS_HBOND_DONOR>
4

> <PUBCHEM_CACTVS_ROTATABLE_BOND>
0

> <PUBCHEM_CACTVS_SUBSKEYS>
AAADcYAAODAAAAAAAEAAAAAAAAAAAAAAAAAAAAAAAAAAAAAAAAAAAAAACAAAAAAAAAAAAAAAAAAAAAAAAAAAAAAAAAAAAAAAAAAAAAAAAAAAAAAAAAAAAAAAAAAAAAAAAAAAAAAAAAAAAAAAAAAAAAAAAA==

> <PUBCHEM_IUPAC_INCHI>
InChI=1S/Mo.2Na.4H2O.2O/h;;;4*1H2;;/q+2;;;;;;;;/p-2

> <PUBCHEM_IUPAC_INCHIKEY>
QWDGSPMWTRJSRJ-UHFFFAOYSA-L

> <PUBCHEM_EXACT_MASS>
245.90138

> <PUBCHEM_MOLECULAR_FORMULA>
H6MoNa2O6

> <PUBCHEM_MOLECULAR_WEIGHT>
244

> <PUBCHEM_OPENEYE_CAN_SMILES>
O.O.O[Mo](=O)(=O)O.[Na].[Na]

> <PUBCHEM_OPENEYE_ISO_SMILES>
O.O.O[Mo](=O)(=O)O.[Na].[Na]

> <PUBCHEM_CACTVS_TPSA>
76.6

> <PUBCHEM_MONOISOTOPIC_WEIGHT>
245.90138

> <PUBCHEM_TOTAL_CHARGE>
0

> <PUBCHEM_HEAVY_ATOM_COUNT>
9

> <PUBCHEM_ATOM_DEF_STEREO_COUNT>
0

> <PUBCHEM_ATOM_UDEF_STEREO_COUNT>
0

> <PUBCHEM_BOND_DEF_STEREO_COUNT>
0

> <PUBCHEM_BOND_UDEF_STEREO_COUNT>
0

> <PUBCHEM_ISOTOPIC_ATOM_COUNT>
0

> <PUBCHEM_COMPONENT_COUNT>
5

> <PUBCHEM_CACTVS_TAUTO_COUNT>
-1

> <PUBCHEM_COORDINATE_TYPE>
1
5
255

$$$$
124202493
  -OEChem-04052116402D

 29 20  0     0  0  0  0  0  0999 V2000
    3.9030    0.8660    0.0000 S   0  0  0  0  0  0  0  0  0  0  0  0
    0.0000    5.6160    0.0000 Mg  0  0  0  0  0 15  0  0  0  0  0  0
    4.7690    1.3660    0.0000 O   0  0  0  0  0  0  0  0  0  0  0  0
    3.0369    0.3660    0.0000 O   0  0  0  0  0  0  0  0  0  0  0  0
    3.4030    1.7320    0.0000 O   0  0  0  0  0  0  0  0  0  0  0  0
    4.4030    0.0000    0.0000 O   0  0  0  0  0  0  0  0  0  0  0  0
    3.9030    3.7320    0.0000 O   0  0  0  0  0  0  0  0  0  0  0  0
    3.9030    6.2320    0.0000 O   0  0  0  0  0  0  0  0  0  0  0  0
    3.9030    8.7320    0.0000 O   0  0  0  0  0  0  0  0  0  0  0  0
    3.9030   11.2321    0.0000 O   0  0  0  0  0  0  0  0  0  0  0  0
    7.8429    4.3660    0.0000 O   0  0  0  0  0  0  0  0  0  0  0  0
    7.8429    6.8660    0.0000 O   0  0  0  0  0  0  0  0  0  0  0  0
   10.9167    5.6160    0.0000 O   0  0  0  0  0  0  0  0  0  0  0  0
    5.3059    1.0560    0.0000 H   0  0  0  0  0  0  0  0  0  0  0  0
    2.5000    0.6760    0.0000 H   0  0  0  0  0  0  0  0  0  0  0  0
    4.4399    4.0420    0.0000 H   0  0  0  0  0  0  0  0  0  0  0  0
    3.3660    4.0420    0.0000 H   0  0  0  0  0  0  0  0  0  0  0  0
    4.4399    6.5420    0.0000 H   0  0  0  0  0  0  0  0  0  0  0  0
    3.3660    6.5420    0.0000 H   0  0  0  0  0  0  0  0  0  0  0  0
    4.4399    9.0420    0.0000 H   0  0  0  0  0  0  0  0  0  0  0  0
    3.3660    9.0420    0.0000 H   0  0  0  0  0  0  0  0  0  0  0  0
    4.4399   11.5421    0.0000 H   0  0  0  0  0  0  0  0  0  0  0  0
    3.3660   11.5421    0.0000 H   0  0  0  0  0  0  0  0  0  0  0  0
    8.3798    4.6760    0.0000 H   0  0  0  0  0  0  0  0  0  0  0  0
    7.3059    4.6760    0.0000 H   0  0  0  0  0  0  0  0  0  0  0  0
    8.3798    7.1760    0.0000 H   0  0  0  0  0  0  0  0  0  0  0  0
    7.3059    7.1760    0.0000 H   0  0  0  0  0  0  0  0  0  0  0  0
   11.4537    5.9260    0.0000 H   0  0  0  0  0  0  0  0  0  0  0  0
   10.3798    5.9260    0.0000 H   0  0  0  0  0  0  0  0  0  0  0  0
  1  3  1  0  0  0  0
  1  4  1  0  0  0  0
  1  5  2  0  0  0  0
  1  6  2  0  0  0  0
  3 14  1  0  0  0  0
  4 15  1  0  0  0  0
  7 16  1  0  0  0  0
  7 17  1  0  0  0  0
  8 18  1  0  0  0  0
  8 19  1  0  0  0  0
  9 20  1  0  0  0  0
  9 21  1  0  0  0  0
 10 22  1  0  0  0  0
 10 23  1  0  0  0  0
 11 24  1  0  0  0  0
 11 25  1  0  0  0  0
 12 26  1  0  0  0  0
 12 27  1  0  0  0  0
 13 28  1  0  0  0  0
 13 29  1  0  0  0  0
M  END
> <PUBCHEM_COMPOUND_CID>
124202493

> <PUBCHEM_COMPOUND_CANONICALIZED>
1

> <PUBCHEM_CACTVS_COMPLEXITY>
81.3

> <PUBCHEM_CACTVS_HBOND_ACCEPTOR>
11

> <PUBCHEM_CACTVS_HBOND_DONOR>
9

> <PUBCHEM_CACTVS_ROTATABLE_BOND>
0

> <PUBCHEM_CACTVS_SUBSKEYS>
AAADceAAPABAACAAAAAAAAAAAAAAAAAAAAAAAAAAAAAAAAAAAAAAAAAACAAAAAAAAAAAAAAAAIAAAAAAADAAAAAAAAAAAAAAAAAAAAAAAAAAAAAAAAAAAAAAAAAAAAAAAAAAAAAAAAAAAAAAAAAAAAAAAA==

> <PUBCHEM_IUPAC_INCHI>
InChI=1S/Mg.H2O4S.7H2O/c;1-5(2,3)4;;;;;;;/h;(H2,1,2,3,4);7*1H2

> <PUBCHEM_IUPAC_INCHIKEY>
QBRPIXOGXMPIMA-UHFFFAOYSA-N

> <PUBCHEM_EXACT_MASS>
248.026374

> <PUBCHEM_MOLECULAR_FORMULA>
H16MgO11S

> <PUBCHEM_MOLECULAR_WEIGHT>
248.49

> <PUBCHEM_OPENEYE_CAN_SMILES>
O.O.O.O.O.O.O.OS(=O)(=O)O.[Mg]

> <PUBCHEM_OPENEYE_ISO_SMILES>
O.O.O.O.O.O.O.OS(=O)(=O)O.[Mg]

> <PUBCHEM_CACTVS_TPSA>
90

> <PUBCHEM_MONOISOTOPIC_WEIGHT>
248.026374

> <PUBCHEM_TOTAL_CHARGE>
0

> <PUBCHEM_HEAVY_ATOM_COUNT>
13

> <PUBCHEM_ATOM_DEF_STEREO_COUNT>
0

> <PUBCHEM_ATOM_UDEF_STEREO_COUNT>
0

> <PUBCHEM_BOND_DEF_STEREO_COUNT>
0

> <PUBCHEM_BOND_UDEF_STEREO_COUNT>
0

> <PUBCHEM_ISOTOPIC_ATOM_COUNT>
0

> <PUBCHEM_COMPONENT_COUNT>
9

> <PUBCHEM_CACTVS_TAUTO_COUNT>
-1

> <PUBCHEM_COORDINATE_TYPE>
1
5
255

$$$$
124202490
  -OEChem-04052116402D

 23 18  0     0  0  0  0  0  0999 V2000
    1.1530    1.8660    0.0000 Fe  0  0  0  0  0  0  0  0  0  0  0  0
    5.9589    0.0000    0.0000 Fe  0  0  0  0  0  0  0  0  0  0  0  0
    1.4030    5.2320    0.0000 S   0  0  0  0  0  0  0  0  0  0  0  0
    6.2089    3.3660    0.0000 S   0  0  0  0  0  0  0  0  0  0  0  0
    6.2089    7.0981    0.0000 S   0  0  0  0  0  0  0  0  0  0  0  0
    2.2690    5.7320    0.0000 O   0  0  0  0  0  0  0  0  0  0  0  0
    0.5369    4.7320    0.0000 O   0  0  0  0  0  0  0  0  0  0  0  0
    7.0749    3.8660    0.0000 O   0  0  0  0  0  0  0  0  0  0  0  0
    5.3429    2.8660    0.0000 O   0  0  0  0  0  0  0  0  0  0  0  0
    7.0749    7.5981    0.0000 O   0  0  0  0  0  0  0  0  0  0  0  0
    5.3429    6.5981    0.0000 O   0  0  0  0  0  0  0  0  0  0  0  0
    0.9030    6.0981    0.0000 O   0  0  0  0  0  0  0  0  0  0  0  0
    1.9030    4.3660    0.0000 O   0  0  0  0  0  0  0  0  0  0  0  0
    5.7089    4.2320    0.0000 O   0  0  0  0  0  0  0  0  0  0  0  0
    6.7089    2.5000    0.0000 O   0  0  0  0  0  0  0  0  0  0  0  0
    5.7089    7.9641    0.0000 O   0  0  0  0  0  0  0  0  0  0  0  0
    6.7089    6.2320    0.0000 O   0  0  0  0  0  0  0  0  0  0  0  0
    2.8059    5.4220    0.0000 H   0  0  0  0  0  0  0  0  0  0  0  0
    0.0000    5.0420    0.0000 H   0  0  0  0  0  0  0  0  0  0  0  0
    7.6118    3.5560    0.0000 H   0  0  0  0  0  0  0  0  0  0  0  0
    4.8059    3.1760    0.0000 H   0  0  0  0  0  0  0  0  0  0  0  0
    7.6118    7.2881    0.0000 H   0  0  0  0  0  0  0  0  0  0  0  0
    4.8059    6.9081    0.0000 H   0  0  0  0  0  0  0  0  0  0  0  0
  3  6  1  0  0  0  0
  3  7  1  0  0  0  0
  3 12  2  0  0  0  0
  3 13  2  0  0  0  0
  4  8  1  0  0  0  0
  4  9  1  0  0  0  0
  4 14  2  0  0  0  0
  4 15  2  0  0  0  0
  5 10  1  0  0  0  0
  5 11  1  0  0  0  0
  5 16  2  0  0  0  0
  5 17  2  0  0  0  0
  6 18  1  0  0  0  0
  7 19  1  0  0  0  0
  8 20  1  0  0  0  0
  9 21  1  0  0  0  0
 10 22  1  0  0  0  0
 11 23  1  0  0  0  0
M  END
> <PUBCHEM_COMPOUND_CID>
124202490

> <PUBCHEM_COMPOUND_CANONICALIZED>
1

> <PUBCHEM_CACTVS_COMPLEXITY>
81.3

> <PUBCHEM_CACTVS_HBOND_ACCEPTOR>
12

> <PUBCHEM_CACTVS_HBOND_DONOR>
6

> <PUBCHEM_CACTVS_ROTATABLE_BOND>
0

> <PUBCHEM_CACTVS_SUBSKEYS>
AAADcYAAPABgAAAgAAAAAAAAAAAAAAAAAAAAAAAAAAAAAAAAAAAAAAAACAAAAAAAAAAAAAAAAIAAAAAAADAAAAAAAAAAAAAAAAAAAAAAAAAAAAAAAAAAAAAAAAAAAAAAAAAAAAAAAAAAAAAAAAAAAAAAAA==

> <PUBCHEM_IUPAC_OPENEYE_NAME>
iron;sulfuric acid

> <PUBCHEM_IUPAC_CAS_NAME>
iron;sulfuric acid

> <PUBCHEM_IUPAC_NAME_MARKUP>
iron;sulfuric acid

> <PUBCHEM_IUPAC_NAME>
iron;sulfuric acid

> <PUBCHEM_IUPAC_SYSTEMATIC_NAME>
iron;sulfuric acid

> <PUBCHEM_IUPAC_TRADITIONAL_NAME>
iron;sulfuric acid

> <PUBCHEM_IUPAC_INCHI>
InChI=1S/2Fe.3H2O4S/c;;3*1-5(2,3)4/h;;3*(H2,1,2,3,4)

> <PUBCHEM_IUPAC_INCHIKEY>
DRCYRSAXKCNGRO-UHFFFAOYSA-N

> <PUBCHEM_EXACT_MASS>
405.77201

> <PUBCHEM_MOLECULAR_FORMULA>
Fe2H6O12S3

> <PUBCHEM_MOLECULAR_WEIGHT>
405.9

> <PUBCHEM_OPENEYE_CAN_SMILES>
OS(=O)(=O)O.OS(=O)(=O)O.OS(=O)(=O)O.[Fe].[Fe]

> <PUBCHEM_OPENEYE_ISO_SMILES>
OS(=O)(=O)O.OS(=O)(=O)O.OS(=O)(=O)O.[Fe].[Fe]

> <PUBCHEM_CACTVS_TPSA>
249

> <PUBCHEM_MONOISOTOPIC_WEIGHT>
405.77201

> <PUBCHEM_TOTAL_CHARGE>
0

> <PUBCHEM_HEAVY_ATOM_COUNT>
17

> <PUBCHEM_ATOM_DEF_STEREO_COUNT>
0

> <PUBCHEM_ATOM_UDEF_STEREO_COUNT>
0

> <PUBCHEM_BOND_DEF_STEREO_COUNT>
0

> <PUBCHEM_BOND_UDEF_STEREO_COUNT>
0

> <PUBCHEM_ISOTOPIC_ATOM_COUNT>
0

> <PUBCHEM_COMPONENT_COUNT>
5

> <PUBCHEM_CACTVS_TAUTO_COUNT>
-1

> <PUBCHEM_COORDINATE_TYPE>
1
5
255

$$$$
124202449
  -OEChem-04052116402D

 23 16  0     0  0  0  0  0  0999 V2000
    0.2869    3.1160    0.0000 Cu  0  0  0  0  0  0  0  0  0  0  0  0
    4.4768    0.8660    0.0000 S   0  0  0  0  0  0  0  0  0  0  0  0
    5.3429    1.3660    0.0000 O   0  0  0  0  0  0  0  0  0  0  0  0
    3.6108    0.3660    0.0000 O   0  0  0  0  0  0  0  0  0  0  0  0
    3.9768    1.7320    0.0000 O   0  0  0  0  0  0  0  0  0  0  0  0
    4.9768    0.0000    0.0000 O   0  0  0  0  0  0  0  0  0  0  0  0
    0.5369    5.6160    0.0000 O   0  0  0  0  0  0  0  0  0  0  0  0
    4.4768    3.7320    0.0000 O   0  0  0  0  0  0  0  0  0  0  0  0
    4.4768    6.2320    0.0000 O   0  0  0  0  0  0  0  0  0  0  0  0
    4.4768    8.7320    0.0000 O   0  0  0  0  0  0  0  0  0  0  0  0
    8.4167    4.3660    0.0000 O   0  0  0  0  0  0  0  0  0  0  0  0
    5.8798    1.0560    0.0000 H   0  0  0  0  0  0  0  0  0  0  0  0
    3.0739    0.6760    0.0000 H   0  0  0  0  0  0  0  0  0  0  0  0
    1.0739    5.9260    0.0000 H   0  0  0  0  0  0  0  0  0  0  0  0
    0.0000    5.9260    0.0000 H   0  0  0  0  0  0  0  0  0  0  0  0
    5.0138    4.0420    0.0000 H   0  0  0  0  0  0  0  0  0  0  0  0
    3.9399    4.0420    0.0000 H   0  0  0  0  0  0  0  0  0  0  0  0
    5.0138    6.5420    0.0000 H   0  0  0  0  0  0  0  0  0  0  0  0
    3.9399    6.5420    0.0000 H   0  0  0  0  0  0  0  0  0  0  0  0
    5.0138    9.0420    0.0000 H   0  0  0  0  0  0  0  0  0  0  0  0
    3.9399    9.0420    0.0000 H   0  0  0  0  0  0  0  0  0  0  0  0
    8.9537    4.6760    0.0000 H   0  0  0  0  0  0  0  0  0  0  0  0
    7.8798    4.6760    0.0000 H   0  0  0  0  0  0  0  0  0  0  0  0
  2  3  1  0  0  0  0
  2  4  1  0  0  0  0
  2  5  2  0  0  0  0
  2  6  2  0  0  0  0
  3 12  1  0  0  0  0
  4 13  1  0  0  0  0
  7 14  1  0  0  0  0
  7 15  1  0  0  0  0
  8 16  1  0  0  0  0
  8 17  1  0  0  0  0
  9 18  1  0  0  0  0
  9 19  1  0  0  0  0
 10 20  1  0  0  0  0
 10 21  1  0  0  0  0
 11 22  1  0  0  0  0
 11 23  1  0  0  0  0
M  END
> <PUBCHEM_COMPOUND_CID>
124202449

> <PUBCHEM_COMPOUND_CANONICALIZED>
1

> <PUBCHEM_CACTVS_COMPLEXITY>
81.3

> <PUBCHEM_CACTVS_HBOND_ACCEPTOR>
9

> <PUBCHEM_CACTVS_HBOND_DONOR>
7

> <PUBCHEM_CACTVS_ROTATABLE_BOND>
0

> <PUBCHEM_CACTVS_SUBSKEYS>
AAADccAAPABAAAAEAAAAAAAAAAAAAAAAAAAAAAAAAAAAAAAAAAAAAAAACAAAAAAAAAAAAAAAAIAAAAAAADAAAAAAAAAAAAAAAAAAAAAAAAAAAAAAAAAAAAAAAAAAAAAAAAAAAAAAAAAAAAAAAAAAAAAAAA==

> <PUBCHEM_IUPAC_OPENEYE_NAME>
copper;sulfuric acid;pentahydrate

> <PUBCHEM_IUPAC_CAS_NAME>
copper;sulfuric acid;pentahydrate

> <PUBCHEM_IUPAC_NAME_MARKUP>
copper;sulfuric acid;pentahydrate

> <PUBCHEM_IUPAC_NAME>
copper;sulfuric acid;pentahydrate

> <PUBCHEM_IUPAC_SYSTEMATIC_NAME>
copper;sulfuric acid;pentahydrate

> <PUBCHEM_IUPAC_TRADITIONAL_NAME>
copper;sulfuric acid;pentahydrate

> <PUBCHEM_IUPAC_INCHI>
InChI=1S/Cu.H2O4S.5H2O/c;1-5(2,3)4;;;;;/h;(H2,1,2,3,4);5*1H2

> <PUBCHEM_IUPAC_INCHIKEY>
CMDXKWPDBAJJNV-UHFFFAOYSA-N

> <PUBCHEM_EXACT_MASS>
250.9498

> <PUBCHEM_MOLECULAR_FORMULA>
CuH12O9S

> <PUBCHEM_MOLECULAR_WEIGHT>
251.7

> <PUBCHEM_OPENEYE_CAN_SMILES>
O.O.O.O.O.OS(=O)(=O)O.[Cu]

> <PUBCHEM_OPENEYE_ISO_SMILES>
O.O.O.O.O.OS(=O)(=O)O.[Cu]

> <PUBCHEM_CACTVS_TPSA>
88

> <PUBCHEM_MONOISOTOPIC_WEIGHT>
250.9498

> <PUBCHEM_TOTAL_CHARGE>
0

> <PUBCHEM_HEAVY_ATOM_COUNT>
11

> <PUBCHEM_ATOM_DEF_STEREO_COUNT>
0

> <PUBCHEM_ATOM_UDEF_STEREO_COUNT>
0

> <PUBCHEM_BOND_DEF_STEREO_COUNT>
0

> <PUBCHEM_BOND_UDEF_STEREO_COUNT>
0

> <PUBCHEM_ISOTOPIC_ATOM_COUNT>
0

> <PUBCHEM_COMPONENT_COUNT>
7

> <PUBCHEM_CACTVS_TAUTO_COUNT>
-1

> <PUBCHEM_COORDINATE_TYPE>
1
5
255

$$$$
124202441
  -OEChem-04052116402D

 25 18  0     0  0  0  0  0  0999 V2000
    5.0929    0.0000    0.0000 Ca  0  0  0  0  0 15  0  0  0  0  0  0
    2.2690    6.0000    0.0000 O   0  0  0  0  0  0  0  0  0  0  0  0
    0.5369    6.0000    0.0000 O   0  0  0  0  0  0  0  0  0  0  0  0
   10.1488    6.0000    0.0000 O   0  0  0  0  0  0  0  0  0  0  0  0
    8.4167    6.0000    0.0000 O   0  0  0  0  0  0  0  0  0  0  0  0
    1.4030    4.5000    0.0000 O   0  0  0  0  0  0  0  0  0  0  0  0
    9.2828    4.5000    0.0000 O   0  0  0  0  0  0  0  0  0  0  0  0
    5.3429    2.5000    0.0000 O   0  0  0  0  0  0  0  0  0  0  0  0
    5.3429    5.0000    0.0000 O   0  0  0  0  0  0  0  0  0  0  0  0
    5.3429    7.5000    0.0000 O   0  0  0  0  0  0  0  0  0  0  0  0
    5.3429   10.0000    0.0000 O   0  0  0  0  0  0  0  0  0  0  0  0
    1.4030    5.5000    0.0000 N   0  3  0  0  0  0  0  0  0  0  0  0
    9.2828    5.5000    0.0000 N   0  3  0  0  0  0  0  0  0  0  0  0
    2.8059    5.6900    0.0000 H   0  0  0  0  0  0  0  0  0  0  0  0
    0.0000    5.6900    0.0000 H   0  0  0  0  0  0  0  0  0  0  0  0
   10.6857    5.6900    0.0000 H   0  0  0  0  0  0  0  0  0  0  0  0
    7.8798    5.6900    0.0000 H   0  0  0  0  0  0  0  0  0  0  0  0
    5.8798    2.8100    0.0000 H   0  0  0  0  0  0  0  0  0  0  0  0
    4.8059    2.8100    0.0000 H   0  0  0  0  0  0  0  0  0  0  0  0
    5.8798    5.3100    0.0000 H   0  0  0  0  0  0  0  0  0  0  0  0
    4.8059    5.3100    0.0000 H   0  0  0  0  0  0  0  0  0  0  0  0
    5.8798    7.8100    0.0000 H   0  0  0  0  0  0  0  0  0  0  0  0
    4.8059    7.8100    0.0000 H   0  0  0  0  0  0  0  0  0  0  0  0
    5.8798   10.3100    0.0000 H   0  0  0  0  0  0  0  0  0  0  0  0
    4.8059   10.3100    0.0000 H   0  0  0  0  0  0  0  0  0  0  0  0
  2 12  1  0  0  0  0
  2 14  1  0  0  0  0
  3 12  1  0  0  0  0
  3 15  1  0  0  0  0
  4 13  1  0  0  0  0
  4 16  1  0  0  0  0
  5 13  1  0  0  0  0
  5 17  1  0  0  0  0
  6 12  2  0  0  0  0
  7 13  2  0  0  0  0
  8 18  1  0  0  0  0
  8 19  1  0  0  0  0
  9 20  1  0  0  0  0
  9 21  1  0  0  0  0
 10 22  1  0  0  0  0
 10 23  1  0  0  0  0
 11 24  1  0  0  0  0
 11 25  1  0  0  0  0
M  CHG  2  12   1  13   1
M  END
> <PUBCHEM_COMPOUND_CID>
124202441

> <PUBCHEM_COMPOUND_CANONICALIZED>
1

> <PUBCHEM_CACTVS_COMPLEXITY>
26.3

> <PUBCHEM_CACTVS_HBOND_ACCEPTOR>
10

> <PUBCHEM_CACTVS_HBOND_DONOR>
8

> <PUBCHEM_CACTVS_ROTATABLE_BOND>
0

> <PUBCHEM_CACTVS_SUBSKEYS>
AAADccADPAAAAAgAAAAAAAAAAAAAAAAAAAAAAAAAAAAAAAAAAAAAAAAECAAAAAAAAAAAAAAAQAABAAAAAQAAAAAAAAAAAAAAAAAAAAAAAAAAAAAAAAAAAAAAAAAAAAAAAAAAAAAAAAAAAAAAAAAAAAAAAA==

> <PUBCHEM_IUPAC_INCHI>
InChI=1S/Ca.2H2NO3.4H2O/c;2*2-1(3)4;;;;/h;2*(H2,2,3,4);4*1H2/q;2*+1;;;;

> <PUBCHEM_IUPAC_INCHIKEY>
BSFIWEQDNLLELU-UHFFFAOYSA-N

> <PUBCHEM_EXACT_MASS>
240.011786

> <PUBCHEM_MOLECULAR_FORMULA>
CaH12N2O10+2

> <PUBCHEM_MOLECULAR_WEIGHT>
240.18

> <PUBCHEM_OPENEYE_CAN_SMILES>
[N+](=O)(O)O.[N+](=O)(O)O.O.O.O.O.[Ca]

> <PUBCHEM_OPENEYE_ISO_SMILES>
[N+](=O)(O)O.[N+](=O)(O)O.O.O.O.O.[Ca]

> <PUBCHEM_CACTVS_TPSA>
125

> <PUBCHEM_MONOISOTOPIC_WEIGHT>
240.011786

> <PUBCHEM_TOTAL_CHARGE>
2

> <PUBCHEM_HEAVY_ATOM_COUNT>
13

> <PUBCHEM_ATOM_DEF_STEREO_COUNT>
0

> <PUBCHEM_ATOM_UDEF_STEREO_COUNT>
0

> <PUBCHEM_BOND_DEF_STEREO_COUNT>
0

> <PUBCHEM_BOND_UDEF_STEREO_COUNT>
0

> <PUBCHEM_ISOTOPIC_ATOM_COUNT>
0

> <PUBCHEM_COMPONENT_COUNT>
7

> <PUBCHEM_CACTVS_TAUTO_COUNT>
-1

> <PUBCHEM_COORDINATE_TYPE>
1
5
255

$$$$
124202422
  -OEChem-04052116402D

 10  8  0     0  0  0  0  0  0999 V2000
    2.2690    1.5000    0.0000 O   0  0  0  0  0  0  0  0  0  0  0  0
    0.5369    1.5000    0.0000 O   0  0  0  0  0  0  0  0  0  0  0  0
    1.4030    0.0000    0.0000 O   0  0  0  0  0  0  0  0  0  0  0  0
    1.4030    1.0000    0.0000 N   0  3  0  0  0  0  0  0  0  0  0  0
    1.4030    4.1200    0.0000 N   0  0  0  0  0  0  0  0  0  0  0  0
    2.8059    1.1900    0.0000 H   0  0  0  0  0  0  0  0  0  0  0  0
    0.0000    1.1900    0.0000 H   0  0  0  0  0  0  0  0  0  0  0  0
    1.9399    4.4300    0.0000 H   0  0  0  0  0  0  0  0  0  0  0  0
    0.8660    4.4300    0.0000 H   0  0  0  0  0  0  0  0  0  0  0  0
    1.4030    3.5000    0.0000 H   0  0  0  0  0  0  0  0  0  0  0  0
  1  4  1  0  0  0  0
  1  6  1  0  0  0  0
  2  4  1  0  0  0  0
  2  7  1  0  0  0  0
  3  4  2  0  0  0  0
  5  8  1  0  0  0  0
  5  9  1  0  0  0  0
  5 10  1  0  0  0  0
M  CHG  1   4   1
M  END
> <PUBCHEM_COMPOUND_CID>
124202422

> <PUBCHEM_COMPOUND_CANONICALIZED>
1

> <PUBCHEM_CACTVS_COMPLEXITY>
26.3

> <PUBCHEM_CACTVS_HBOND_ACCEPTOR>
4

> <PUBCHEM_CACTVS_HBOND_DONOR>
3

> <PUBCHEM_CACTVS_ROTATABLE_BOND>
0

> <PUBCHEM_CACTVS_SUBSKEYS>
AAADcYADMAAAAAAAAAAAAAAAAAAAAAAAAAAAAAAAAAAAAAAAAAAAAAAUCAAAAAAAAAAAAAAAQAABAAAAAQAAAAAAAAAAAAAAAAAAAAAAAAAAAAAAAAAAAAAAAAAAAAAAAAAAAAAAAAAAAAAAAAAAAAAAAA==

> <PUBCHEM_IUPAC_OPENEYE_NAME>
ammonia;dihydroxy(oxo)ammonium

> <PUBCHEM_IUPAC_CAS_NAME>
ammonia;dihydroxy(oxo)ammonium

> <PUBCHEM_IUPAC_NAME_MARKUP>
azane;dihydroxy(oxo)azanium

> <PUBCHEM_IUPAC_NAME>
azane;dihydroxy(oxo)azanium

> <PUBCHEM_IUPAC_SYSTEMATIC_NAME>
azane;bis(oxidanyl)-oxidanylidene-azanium

> <PUBCHEM_IUPAC_TRADITIONAL_NAME>
ammonia;dihydroxy(keto)ammonium

> <PUBCHEM_IUPAC_INCHI>
InChI=1S/H2NO3.H3N/c2-1(3)4;/h(H2,2,3,4);1H3/q+1;

> <PUBCHEM_IUPAC_INCHIKEY>
MBEJEJJOUHVLJU-UHFFFAOYSA-N

> <PUBCHEM_EXACT_MASS>
81.030017

> <PUBCHEM_MOLECULAR_FORMULA>
H5N2O3+

> <PUBCHEM_MOLECULAR_WEIGHT>
81.052

> <PUBCHEM_OPENEYE_CAN_SMILES>
N.[N+](=O)(O)O

> <PUBCHEM_OPENEYE_ISO_SMILES>
N.[N+](=O)(O)O

> <PUBCHEM_CACTVS_TPSA>
61.5

> <PUBCHEM_MONOISOTOPIC_WEIGHT>
81.030017

> <PUBCHEM_TOTAL_CHARGE>
1

> <PUBCHEM_HEAVY_ATOM_COUNT>
5

> <PUBCHEM_ATOM_DEF_STEREO_COUNT>
0

> <PUBCHEM_ATOM_UDEF_STEREO_COUNT>
0

> <PUBCHEM_BOND_DEF_STEREO_COUNT>
0

> <PUBCHEM_BOND_UDEF_STEREO_COUNT>
0

> <PUBCHEM_ISOTOPIC_ATOM_COUNT>
0

> <PUBCHEM_COMPONENT_COUNT>
2

> <PUBCHEM_CACTVS_TAUTO_COUNT>
-1

> <PUBCHEM_COORDINATE_TYPE>
1
5
255

$$$$
87063917
  -OEChem-04052116402D

 38 35  0     0  0  0  0  0  0999 V2000
    0.0000    4.0600    0.0000 Fe  0  0  0  0  0  0  0  0  0  0  0  0
    5.2811    0.0000    0.0000 Na  0  4  0  0  0  0  0  0  0  0  0  0
    2.5000    7.3100    0.0000 O   0  0  0  0  0  0  0  0  0  0  0  0
    3.3660    2.8100    0.0000 O   0  0  0  0  0  0  0  0  0  0  0  0
    8.5622    3.8100    0.0000 O   0  0  0  0  0  0  0  0  0  0  0  0
    7.6962    8.3100    0.0000 O   0  0  0  0  0  0  0  0  0  0  0  0
    4.2320    7.3100    0.0000 O   0  0  0  0  0  0  0  0  0  0  0  0
    2.5000    4.3100    0.0000 O   0  0  0  0  0  0  0  0  0  0  0  0
    6.8301    3.8100    0.0000 O   0  0  0  0  0  0  0  0  0  0  0  0
    8.5622    6.8100    0.0000 O   0  0  0  0  0  0  0  0  0  0  0  0
    4.2320    5.3100    0.0000 N   0  0  0  0  0  0  0  0  0  0  0  0
    6.8301    5.8100    0.0000 N   0  0  0  0  0  0  0  0  0  0  0  0
    5.0981    5.8100    0.0000 C   0  0  0  0  0  0  0  0  0  0  0  0
    5.9641    5.3100    0.0000 C   0  0  0  0  0  0  0  0  0  0  0  0
    3.3660    5.8100    0.0000 C   0  0  0  0  0  0  0  0  0  0  0  0
    4.2320    4.3100    0.0000 C   0  0  0  0  0  0  0  0  0  0  0  0
    7.6962    5.3100    0.0000 C   0  0  0  0  0  0  0  0  0  0  0  0
    6.8301    6.8100    0.0000 C   0  0  0  0  0  0  0  0  0  0  0  0
    3.3660    6.8100    0.0000 C   0  0  0  0  0  0  0  0  0  0  0  0
    3.3660    3.8100    0.0000 C   0  0  0  0  0  0  0  0  0  0  0  0
    7.6962    4.3100    0.0000 C   0  0  0  0  0  0  0  0  0  0  0  0
    7.6962    7.3100    0.0000 C   0  0  0  0  0  0  0  0  0  0  0  0
    5.4966    6.2850    0.0000 H   0  0  0  0  0  0  0  0  0  0  0  0
    4.6996    6.2850    0.0000 H   0  0  0  0  0  0  0  0  0  0  0  0
    5.5656    4.8350    0.0000 H   0  0  0  0  0  0  0  0  0  0  0  0
    6.3626    4.8350    0.0000 H   0  0  0  0  0  0  0  0  0  0  0  0
    2.7554    5.9177    0.0000 H   0  0  0  0  0  0  0  0  0  0  0  0
    3.1540    5.2274    0.0000 H   0  0  0  0  0  0  0  0  0  0  0  0
    4.4441    3.7274    0.0000 H   0  0  0  0  0  0  0  0  0  0  0  0
    4.8426    4.4177    0.0000 H   0  0  0  0  0  0  0  0  0  0  0  0
    8.3067    5.2023    0.0000 H   0  0  0  0  0  0  0  0  0  0  0  0
    7.9082    5.8926    0.0000 H   0  0  0  0  0  0  0  0  0  0  0  0
    6.6181    7.3926    0.0000 H   0  0  0  0  0  0  0  0  0  0  0  0
    6.2196    6.7023    0.0000 H   0  0  0  0  0  0  0  0  0  0  0  0
    2.5000    7.9300    0.0000 H   0  0  0  0  0  0  0  0  0  0  0  0
    2.8291    2.5000    0.0000 H   0  0  0  0  0  0  0  0  0  0  0  0
    8.5622    3.1900    0.0000 H   0  0  0  0  0  0  0  0  0  0  0  0
    8.2331    8.6200    0.0000 H   0  0  0  0  0  0  0  0  0  0  0  0
  3 19  1  0  0  0  0
  3 35  1  0  0  0  0
  4 20  1  0  0  0  0
  4 36  1  0  0  0  0
  5 21  1  0  0  0  0
  5 37  1  0  0  0  0
  6 22  1  0  0  0  0
  6 38  1  0  0  0  0
  7 19  2  0  0  0  0
  8 20  2  0  0  0  0
  9 21  2  0  0  0  0
 10 22  2  0  0  0  0
 11 13  1  0  0  0  0
 11 15  1  0  0  0  0
 11 16  1  0  0  0  0
 12 14  1  0  0  0  0
 12 17  1  0  0  0  0
 12 18  1  0  0  0  0
 13 14  1  0  0  0  0
 13 23  1  0  0  0  0
 13 24  1  0  0  0  0
 14 25  1  0  0  0  0
 14 26  1  0  0  0  0
 15 19  1  0  0  0  0
 15 27  1  0  0  0  0
 15 28  1  0  0  0  0
 16 20  1  0  0  0  0
 16 29  1  0  0  0  0
 16 30  1  0  0  0  0
 17 21  1  0  0  0  0
 17 31  1  0  0  0  0
 17 32  1  0  0  0  0
 18 22  1  0  0  0  0
 18 33  1  0  0  0  0
 18 34  1  0  0  0  0
M  RAD  1   2   2
M  END
> <PUBCHEM_COMPOUND_CID>
87063917

> <PUBCHEM_COMPOUND_CANONICALIZED>
1

> <PUBCHEM_CACTVS_COMPLEXITY>
316

> <PUBCHEM_CACTVS_HBOND_ACCEPTOR>
10

> <PUBCHEM_CACTVS_HBOND_DONOR>
4

> <PUBCHEM_CACTVS_ROTATABLE_BOND>
11

> <PUBCHEM_CACTVS_SUBSKEYS>
AAADceBzPCAAAAAgAAAAAAAAAAAAAAAAAAAAAAAAAAAAAAAAAAAAHgAACAAAAADBgAQACAMAAgAIAACQCAAAAAAAAAAAAACIAAACQAAAACAQAAAAAACQAAAAAAAAAAAAAAAAAAAAAAAAAAAAAAAAAAAAAA==

> <PUBCHEM_IUPAC_INCHI>
InChI=1S/C10H16N2O8.Fe.Na/c13-7(14)3-11(4-8(15)16)1-2-12(5-9(17)18)6-10(19)20;;/h1-6H2,(H,13,14)(H,15,16)(H,17,18)(H,19,20);;

> <PUBCHEM_IUPAC_INCHIKEY>
LKZLBQPNDYMRJE-UHFFFAOYSA-N

> <PUBCHEM_EXACT_MASS>
371.01537

> <PUBCHEM_MOLECULAR_FORMULA>
C10H16FeN2NaO8

> <PUBCHEM_MOLECULAR_WEIGHT>
371.08

> <PUBCHEM_OPENEYE_CAN_SMILES>
C(CN(CC(=O)O)CC(=O)O)N(CC(=O)O)CC(=O)O.[Na].[Fe]

> <PUBCHEM_OPENEYE_ISO_SMILES>
C(CN(CC(=O)O)CC(=O)O)N(CC(=O)O)CC(=O)O.[Na].[Fe]

> <PUBCHEM_CACTVS_TPSA>
156

> <PUBCHEM_MONOISOTOPIC_WEIGHT>
371.01537

> <PUBCHEM_TOTAL_CHARGE>
0

> <PUBCHEM_HEAVY_ATOM_COUNT>
22

> <PUBCHEM_ATOM_DEF_STEREO_COUNT>
0

> <PUBCHEM_ATOM_UDEF_STEREO_COUNT>
0

> <PUBCHEM_BOND_DEF_STEREO_COUNT>
0

> <PUBCHEM_BOND_UDEF_STEREO_COUNT>
0

> <PUBCHEM_ISOTOPIC_ATOM_COUNT>
0

> <PUBCHEM_COMPONENT_COUNT>
3

> <PUBCHEM_CACTVS_TAUTO_COUNT>
-1

> <PUBCHEM_COORDINATE_TYPE>
1
5
255

$$$$
76973663
  -OEChem-04052116402D

 10 10  0     0  0  0  0  0  0999 V2000
    2.8644   -0.7102    0.0000 N   1  0  0  0  0  0  0  0  0  0  0  0
    3.3644    0.8286    0.0000 N   1  0  0  0  0  0  0  0  0  0  0  0
    2.0554   -0.1224    0.0000 N   0  0  0  0  0  0  0  0  0  0  0  0
    4.6245   -0.4314    0.0000 N   1  0  0  0  0  0  0  0  0  0  0  0
    3.6734   -0.1224    0.0000 C   1  0  0  0  0  0  0  0  0  0  0  0
    2.3644    0.8286    0.0000 C   1  0  0  0  0  0  0  0  0  0  0  0
    2.8644   -1.3302    0.0000 H   0  0  0  0  0  0  0  0  0  0  0  0
    2.0000    1.3302    0.0000 H   0  0  0  0  0  0  0  0  0  0  0  0
    5.0852   -0.0166    0.0000 H   0  0  0  0  0  0  0  0  0  0  0  0
    4.7534   -1.0379    0.0000 H   0  0  0  0  0  0  0  0  0  0  0  0
  1  3  1  0  0  0  0
  1  5  1  0  0  0  0
  1  7  1  0  0  0  0
  2  5  2  0  0  0  0
  2  6  1  0  0  0  0
  3  6  2  0  0  0  0
  4  5  1  0  0  0  0
  4  9  1  0  0  0  0
  4 10  1  0  0  0  0
  6  8  1  0  0  0  0
M  ISO  5   1  15   2  15   4  15   5  13   6  13
M  END
> <PUBCHEM_COMPOUND_CID>
76973663

> <PUBCHEM_COMPOUND_CANONICALIZED>
1

> <PUBCHEM_CACTVS_COMPLEXITY>
44.8

> <PUBCHEM_CACTVS_HBOND_ACCEPTOR>
3

> <PUBCHEM_CACTVS_HBOND_DONOR>
2

> <PUBCHEM_CACTVS_ROTATABLE_BOND>
0

> <PUBCHEM_CACTVS_SUBSKEYS>
AAADcYBDgAAAAAAAAAAAAAAAAAAAAWAAAAAAAAAAAAAAAAABgAAAFAAYAAAAAAAAAAQFEAZrEAAiAAABJAAQAAuQgIAFYAAIAACACAAAAAAAAAAQAAAAAAAAAAAAAAAAAAAAAAAAAAAAAAAAAAAAAAAAAA==

> <PUBCHEM_IUPAC_OPENEYE_NAME>
(3,5-13C2,1,4-15N2)1H-1,2,4-triazol-5-(15N)amine

> <PUBCHEM_IUPAC_CAS_NAME>
(3,5-13C2,1,4-15N2)1H-1,2,4-triazol-5-(15N)amine

> <PUBCHEM_IUPAC_NAME_MARKUP>
(3,5-<SUP>13</SUP>C<SUB>2</SUB>,1,4-<SUP>15</SUP>N<SUB>2</SUB>)1<I>H</I>-1,2,4-triazol-5-(<SUP>15</SUP>N)amine

> <PUBCHEM_IUPAC_NAME>
(3,5-13C2,1,4-15N2)1H-1,2,4-triazol-5-(15N)amine

> <PUBCHEM_IUPAC_SYSTEMATIC_NAME>
(3,5-13C2,1,4-15N2)1H-1,2,4-triazol-5-(15N)amine

> <PUBCHEM_IUPAC_TRADITIONAL_NAME>
(3,5-13C2,1,4-15N2)1H-1,2,4-triazol-5-yl(15N)amine

> <PUBCHEM_IUPAC_INCHI>
InChI=1S/C2H4N4/c3-2-4-1-5-6-2/h1H,(H3,3,4,5,6)/i1+1,2+1,3+1,4+1,6+1

> <PUBCHEM_IUPAC_INCHIKEY>
KLSJWNVTNUYHDU-ZFKNMOOESA-N

> <PUBCHEM_XLOGP3_AA>
-0.4

> <PUBCHEM_EXACT_MASS>
89.04141

> <PUBCHEM_MOLECULAR_FORMULA>
C2H4N4

> <PUBCHEM_MOLECULAR_WEIGHT>
89.046

> <PUBCHEM_OPENEYE_CAN_SMILES>
C1=NNC(=N1)N

> <PUBCHEM_OPENEYE_ISO_SMILES>
[13CH]1=N[15NH][13C](=[15N]1)[15NH2]

> <PUBCHEM_CACTVS_TPSA>
67.6

> <PUBCHEM_MONOISOTOPIC_WEIGHT>
89.04141

> <PUBCHEM_TOTAL_CHARGE>
0

> <PUBCHEM_HEAVY_ATOM_COUNT>
6

> <PUBCHEM_ATOM_DEF_STEREO_COUNT>
0

> <PUBCHEM_ATOM_UDEF_STEREO_COUNT>
0

> <PUBCHEM_BOND_DEF_STEREO_COUNT>
0

> <PUBCHEM_BOND_UDEF_STEREO_COUNT>
0

> <PUBCHEM_ISOTOPIC_ATOM_COUNT>
5

> <PUBCHEM_COMPONENT_COUNT>
1

> <PUBCHEM_CACTVS_TAUTO_COUNT>
-1

> <PUBCHEM_COORDINATE_TYPE>
1
5
255

> <PUBCHEM_BONDANNOTATIONS>
1  3  8
1  5  8
2  5  8
2  6  8
3  6  8

$$$$
54670067
  -OEChem-04052116402D

 20 20  0     1  0  0  0  0  0999 V2000
    5.0298   -0.5357    0.0000 O   0  0  0  0  0  0  0  0  0  0  0  0
    3.3548    1.5521    0.0000 O   0  0  0  0  0  0  0  0  0  0  0  0
    2.4608   -0.2266    0.0000 O   0  0  0  0  0  0  0  0  0  0  0  0
    5.0868    2.5521    0.0000 O   0  0  0  0  0  0  0  0  0  0  0  0
    3.1330   -2.2957    0.0000 O   0  0  0  0  0  0  0  0  0  0  0  0
    5.3086   -2.2957    0.0000 O   0  0  0  0  0  0  0  0  0  0  0  0
    4.2208    0.0521    0.0000 C   0  0  2  0  0  0  0  0  0  0  0  0
    4.2208    1.0521    0.0000 C   0  0  2  0  0  0  0  0  0  0  0  0
    3.4118   -0.5357    0.0000 C   0  0  0  0  0  0  0  0  0  0  0  0
    5.0868    1.5521    0.0000 C   0  0  0  0  0  0  0  0  0  0  0  0
    3.7208   -1.4867    0.0000 C   0  0  0  0  0  0  0  0  0  0  0  0
    4.7208   -1.4867    0.0000 C   0  0  0  0  0  0  0  0  0  0  0  0
    4.9782    0.4380    0.0000 H   0  0  0  0  0  0  0  0  0  0  0  0
    4.2208    1.6721    0.0000 H   0  0  0  0  0  0  0  0  0  0  0  0
    5.2989    0.9695    0.0000 H   0  0  0  0  0  0  0  0  0  0  0  0
    5.6974    1.6598    0.0000 H   0  0  0  0  0  0  0  0  0  0  0  0
    3.3548    2.1721    0.0000 H   0  0  0  0  0  0  0  0  0  0  0  0
    2.0000   -0.6415    0.0000 H   0  0  0  0  0  0  0  0  0  0  0  0
    5.6238    2.8621    0.0000 H   0  0  0  0  0  0  0  0  0  0  0  0
    3.3852   -2.8621    0.0000 H   0  0  0  0  0  0  0  0  0  0  0  0
  1  7  1  0  0  0  0
  1 12  1  0  0  0  0
  8  2  1  1  0  0  0
  2 17  1  0  0  0  0
  3  9  1  0  0  0  0
  3 18  1  0  0  0  0
  4 10  1  0  0  0  0
  4 19  1  0  0  0  0
  5 11  1  0  0  0  0
  5 20  1  0  0  0  0
  6 12  2  0  0  0  0
  7  8  1  0  0  0  0
  7  9  1  0  0  0  0
  7 13  1  6  0  0  0
  8 10  1  0  0  0  0
  8 14  1  0  0  0  0
  9 11  2  0  0  0  0
 10 15  1  0  0  0  0
 10 16  1  0  0  0  0
 11 12  1  0  0  0  0
M  END
> <PUBCHEM_COMPOUND_CID>
54670067

> <PUBCHEM_COMPOUND_CANONICALIZED>
1

> <PUBCHEM_CACTVS_COMPLEXITY>
232

> <PUBCHEM_CACTVS_HBOND_ACCEPTOR>
6

> <PUBCHEM_CACTVS_HBOND_DONOR>
4

> <PUBCHEM_CACTVS_ROTATABLE_BOND>
2

> <PUBCHEM_CACTVS_SUBSKEYS>
AAADccBgOAAAAAAAAAAAAAAAAAAAAQAAAAAAAAAAAAAAAAAAAAAAGgAACAAACBSggAIACAAABgCIAADQCAIAAAAgIAAACABAAEgBFAAAIAACUAAFwAALIQJAAAAAAAAAAAAAAAAAAAAAAAAAAAAAAAAAAA==

> <PUBCHEM_IUPAC_OPENEYE_NAME>
(2R)-2-[(1S)-1,2-dihydroxyethyl]-3,4-dihydroxy-2H-furan-5-one

> <PUBCHEM_IUPAC_CAS_NAME>
(2R)-2-[(1S)-1,2-dihydroxyethyl]-3,4-dihydroxy-2H-furan-5-one

> <PUBCHEM_IUPAC_NAME_MARKUP>
(2<I>R</I>)-2-[(1<I>S</I>)-1,2-dihydroxyethyl]-3,4-dihydroxy-2<I>H</I>-furan-5-one

> <PUBCHEM_IUPAC_NAME>
(2R)-2-[(1S)-1,2-dihydroxyethyl]-3,4-dihydroxy-2H-furan-5-one

> <PUBCHEM_IUPAC_SYSTEMATIC_NAME>
(2R)-2-[(1S)-1,2-bis(oxidanyl)ethyl]-3,4-bis(oxidanyl)-2H-furan-5-one

> <PUBCHEM_IUPAC_TRADITIONAL_NAME>
(2R)-2-[(1S)-1,2-dihydroxyethyl]-3,4-dihydroxy-2H-furan-5-one

> <PUBCHEM_IUPAC_INCHI>
InChI=1S/C6H8O6/c7-1-2(8)5-3(9)4(10)6(11)12-5/h2,5,7-10H,1H2/t2-,5+/m0/s1

> <PUBCHEM_IUPAC_INCHIKEY>
CIWBSHSKHKDKBQ-JLAZNSOCSA-N

> <PUBCHEM_XLOGP3>
-1.6

> <PUBCHEM_EXACT_MASS>
176.032088

> <PUBCHEM_MOLECULAR_FORMULA>
C6H8O6

> <PUBCHEM_MOLECULAR_WEIGHT>
176.12

> <PUBCHEM_OPENEYE_CAN_SMILES>
C(C(C1C(=C(C(=O)O1)O)O)O)O

> <PUBCHEM_OPENEYE_ISO_SMILES>
C([C@@H]([C@@H]1C(=C(C(=O)O1)O)O)O)O

> <PUBCHEM_CACTVS_TPSA>
107

> <PUBCHEM_MONOISOTOPIC_WEIGHT>
176.032088

> <PUBCHEM_TOTAL_CHARGE>
0

> <PUBCHEM_HEAVY_ATOM_COUNT>
12

> <PUBCHEM_ATOM_DEF_STEREO_COUNT>
2

> <PUBCHEM_ATOM_UDEF_STEREO_COUNT>
0

> <PUBCHEM_BOND_DEF_STEREO_COUNT>
0

> <PUBCHEM_BOND_UDEF_STEREO_COUNT>
0

> <PUBCHEM_ISOTOPIC_ATOM_COUNT>
0

> <PUBCHEM_COMPONENT_COUNT>
1

> <PUBCHEM_CACTVS_TAUTO_COUNT>
-1

> <PUBCHEM_COORDINATE_TYPE>
1
5
255

> <PUBCHEM_BONDANNOTATIONS>
8  2  5
7  13  6

$$$$
54612433
  -OEChem-04052116402D

 83 88  0     1  0  0  0  0  0999 V2000
    8.0515    4.1774    0.0000 O   0  0  0  0  0  0  0  0  0  0  0  0
    6.3195    5.1774    0.0000 O   0  0  0  0  0  0  0  0  0  0  0  0
    4.5493    4.1806    0.0000 O   0  0  0  0  0  0  0  0  0  0  0  0
    9.8217    5.1743    0.0000 O   0  0  0  0  0  0  0  0  0  0  0  0
   11.1134    5.6046    0.0000 O   0  0  0  0  0  0  0  0  0  0  0  0
   10.1051    5.9365    0.0000 O   0  0  0  0  0  0  0  0  0  0  0  0
    0.5369    5.4705    0.0000 O   0  0  0  0  0  0  0  0  0  0  0  0
    7.6546   11.4238    0.0000 O   0  0  0  0  0  0  0  0  0  0  0  0
    8.1702    1.0304    0.0000 N   0  0  3  0  0  0  0  0  0  0  0  0
    6.2008    8.3244    0.0000 N   0  0  3  0  0  0  0  0  0  0  0  0
    8.1535    2.1153    0.0000 C   0  0  2  0  0  0  0  0  0  0  0  0
    6.2175    7.2396    0.0000 C   0  0  2  0  0  0  0  0  0  0  0  0
    7.2016    2.6359    0.0000 C   0  0  0  0  0  0  0  0  0  0  0  0
    7.1695    6.7189    0.0000 C   0  0  0  0  0  0  0  0  0  0  0  0
    6.3035    2.1082    0.0000 C   0  0  0  0  0  0  0  0  0  0  0  0
    8.0675    7.2467    0.0000 C   0  0  0  0  0  0  0  0  0  0  0  0
    7.2348    0.4807    0.0000 C   0  0  0  0  0  0  0  0  0  0  0  0
    6.2952    1.0232    0.0000 C   0  0  0  0  0  0  0  0  0  0  0  0
    7.1362    8.8742    0.0000 C   0  0  0  0  0  0  0  0  0  0  0  0
    8.0759    8.3317    0.0000 C   0  0  0  0  0  0  0  0  0  0  0  0
    7.1855    3.6774    0.0000 C   0  0  0  0  0  0  0  0  0  0  0  0
    7.1855    5.6774    0.0000 C   0  0  0  0  0  0  0  0  0  0  0  0
    9.1823    2.2787    0.0000 C   0  0  0  0  0  0  0  0  0  0  0  0
    7.0974    7.7973    0.0000 C   0  0  0  0  0  0  0  0  0  0  0  0
    6.3195    4.1774    0.0000 C   0  0  0  0  0  0  0  0  0  0  0  0
    8.0515    5.1774    0.0000 C   0  0  0  0  0  0  0  0  0  0  0  0
    5.4015    2.6290    0.0000 C   0  0  0  0  0  0  0  0  0  0  0  0
    8.9696    6.7259    0.0000 C   0  0  0  0  0  0  0  0  0  0  0  0
    9.0420    0.5405    0.0000 C   0  0  0  0  0  0  0  0  0  0  0  0
    5.4095    3.6706    0.0000 C   0  0  0  0  0  0  0  0  0  0  0  0
    5.3291    8.8144    0.0000 C   0  0  0  0  0  0  0  0  0  0  0  0
    8.9615    5.6843    0.0000 C   0  0  0  0  0  0  0  0  0  0  0  0
   10.0903    2.7894    0.0000 C   0  0  0  0  0  0  0  0  0  0  0  0
    8.1162    8.0145    0.0000 C   0  0  0  0  0  0  0  0  0  0  0  0
   10.7642    3.5838    0.0000 C   0  0  0  0  0  0  0  0  0  0  0  0
    8.9559    7.4708    0.0000 C   0  0  0  0  0  0  0  0  0  0  0  0
    9.1470    7.8641    0.0000 C   0  0  0  0  0  0  0  0  0  0  0  0
    9.3036    3.4056    0.0000 C   0  0  0  0  0  0  0  0  0  0  0  0
   11.1200    4.5629    0.0000 C   0  0  0  0  0  0  0  0  0  0  0  0
    9.8338    6.9914    0.0000 C   0  0  0  0  0  0  0  0  0  0  0  0
   10.0614    7.3649    0.0000 C   0  0  0  0  0  0  0  0  0  0  0  0
   10.7452    6.5791    0.0000 C   0  0  0  0  0  0  0  0  0  0  0  0
    9.3522    4.4036    0.0000 C   0  0  0  0  0  0  0  0  0  0  0  0
   10.1949    4.9406    0.0000 C   0  0  0  0  0  0  0  0  0  0  0  0
    1.4030    5.9705    0.0000 C   0  0  0  0  0  0  0  0  0  0  0  0
    8.8993    1.7074    0.0000 H   0  0  0  0  0  0  0  0  0  0  0  0
    5.3680    7.2122    0.0000 H   0  0  0  0  0  0  0  0  0  0  0  0
    6.8375    0.0047    0.0000 H   0  0  0  0  0  0  0  0  0  0  0  0
    7.6358    0.0078    0.0000 H   0  0  0  0  0  0  0  0  0  0  0  0
    5.6852    1.1340    0.0000 H   0  0  0  0  0  0  0  0  0  0  0  0
    6.0816    0.4411    0.0000 H   0  0  0  0  0  0  0  0  0  0  0  0
    7.5335    9.3501    0.0000 H   0  0  0  0  0  0  0  0  0  0  0  0
    6.7353    9.3470    0.0000 H   0  0  0  0  0  0  0  0  0  0  0  0
    8.6859    8.2209    0.0000 H   0  0  0  0  0  0  0  0  0  0  0  0
    8.2894    8.9137    0.0000 H   0  0  0  0  0  0  0  0  0  0  0  0
    9.0303    1.6776    0.0000 H   0  0  0  0  0  0  0  0  0  0  0  0
    8.9785    2.8642    0.0000 H   0  0  0  0  0  0  0  0  0  0  0  0
    7.2177    8.4055    0.0000 H   0  0  0  0  0  0  0  0  0  0  0  0
    7.3317    7.2233    0.0000 H   0  0  0  0  0  0  0  0  0  0  0  0
    4.8633    2.3211    0.0000 H   0  0  0  0  0  0  0  0  0  0  0  0
    9.5077    7.0338    0.0000 H   0  0  0  0  0  0  0  0  0  0  0  0
    8.7382    0.0000    0.0000 H   0  0  0  0  0  0  0  0  0  0  0  0
    9.5825    0.2367    0.0000 H   0  0  0  0  0  0  0  0  0  0  0  0
    9.3458    1.0810    0.0000 H   0  0  0  0  0  0  0  0  0  0  0  0
    5.6328    9.3549    0.0000 H   0  0  0  0  0  0  0  0  0  0  0  0
    4.7886    9.1182    0.0000 H   0  0  0  0  0  0  0  0  0  0  0  0
    5.0253    8.2739    0.0000 H   0  0  0  0  0  0  0  0  0  0  0  0
   11.3003    3.2725    0.0000 H   0  0  0  0  0  0  0  0  0  0  0  0
    8.6386    6.9381    0.0000 H   0  0  0  0  0  0  0  0  0  0  0  0
    9.3434    8.4522    0.0000 H   0  0  0  0  0  0  0  0  0  0  0  0
    8.7398    3.1478    0.0000 H   0  0  0  0  0  0  0  0  0  0  0  0
    4.0088    3.8768    0.0000 H   0  0  0  0  0  0  0  0  0  0  0  0
    9.8146    4.5543    0.0000 H   0  0  0  0  0  0  0  0  0  0  0  0
    9.5573    6.4365    0.0000 H   0  0  0  0  0  0  0  0  0  0  0  0
   10.4499    7.8481    0.0000 H   0  0  0  0  0  0  0  0  0  0  0  0
    8.8160    4.7149    0.0000 H   0  0  0  0  0  0  0  0  0  0  0  0
    9.5426    6.1971    0.0000 H   0  0  0  0  0  0  0  0  0  0  0  0
    1.7130    5.4336    0.0000 H   0  0  0  0  0  0  0  0  0  0  0  0
    1.9399    6.2805    0.0000 H   0  0  0  0  0  0  0  0  0  0  0  0
    1.0930    6.5075    0.0000 H   0  0  0  0  0  0  0  0  0  0  0  0
    0.0000    5.7805    0.0000 H   0  0  0  0  0  0  0  0  0  0  0  0
    8.1915   11.7338    0.0000 H   0  0  0  0  0  0  0  0  0  0  0  0
    7.1176   11.7338    0.0000 H   0  0  0  0  0  0  0  0  0  0  0  0
  1 21  1  0  0  0  0
  1 26  1  0  0  0  0
  2 22  1  0  0  0  0
  2 25  1  0  0  0  0
  3 30  1  0  0  0  0
  3 72  1  0  0  0  0
  4 32  1  0  0  0  0
  4 73  1  0  0  0  0
  5 39  1  0  0  0  0
  5 42  1  0  0  0  0
  6 44  1  0  0  0  0
  6 77  1  0  0  0  0
  7 45  1  0  0  0  0
  7 81  1  0  0  0  0
  8 82  1  0  0  0  0
  8 83  1  0  0  0  0
  9 11  1  0  0  0  0
  9 17  1  0  0  0  0
  9 29  1  0  0  0  0
 10 12  1  0  0  0  0
 10 19  1  0  0  0  0
 10 31  1  0  0  0  0
 11 13  1  0  0  0  0
 11 23  1  0  0  0  0
 11 46  1  1  0  0  0
 12 14  1  0  0  0  0
 12 24  1  0  0  0  0
 12 47  1  6  0  0  0
 13 15  1  0  0  0  0
 13 21  2  0  0  0  0
 14 16  1  0  0  0  0
 14 22  2  0  0  0  0
 15 18  1  0  0  0  0
 15 27  2  0  0  0  0
 16 20  1  0  0  0  0
 16 28  2  0  0  0  0
 17 18  1  0  0  0  0
 17 48  1  0  0  0  0
 17 49  1  0  0  0  0
 18 50  1  0  0  0  0
 18 51  1  0  0  0  0
 19 20  1  0  0  0  0
 19 52  1  0  0  0  0
 19 53  1  0  0  0  0
 20 54  1  0  0  0  0
 20 55  1  0  0  0  0
 21 25  1  0  0  0  0
 22 26  1  0  0  0  0
 23 33  1  0  0  0  0
 23 56  1  0  0  0  0
 23 57  1  0  0  0  0
 24 34  1  0  0  0  0
 24 58  1  0  0  0  0
 24 59  1  0  0  0  0
 25 30  2  0  0  0  0
 26 32  2  0  0  0  0
 27 30  1  0  0  0  0
 27 60  1  0  0  0  0
 28 32  1  0  0  0  0
 28 61  1  0  0  0  0
 29 62  1  0  0  0  0
 29 63  1  0  0  0  0
 29 64  1  0  0  0  0
 31 65  1  0  0  0  0
 31 66  1  0  0  0  0
 31 67  1  0  0  0  0
 33 35  2  0  0  0  0
 33 38  1  0  0  0  0
 34 36  2  0  0  0  0
 34 37  1  0  0  0  0
 35 39  1  0  0  0  0
 35 68  1  0  0  0  0
 36 40  1  0  0  0  0
 36 69  1  0  0  0  0
 37 41  2  0  0  0  0
 37 70  1  0  0  0  0
 38 43  2  0  0  0  0
 38 71  1  0  0  0  0
 39 44  2  0  0  0  0
 40 42  2  0  0  0  0
 40 74  1  0  0  0  0
 41 42  1  0  0  0  0
 41 75  1  0  0  0  0
 43 44  1  0  0  0  0
 43 76  1  0  0  0  0
 45 78  1  0  0  0  0
 45 79  1  0  0  0  0
 45 80  1  0  0  0  0
M  END
> <PUBCHEM_COMPOUND_CID>
54612433

> <PUBCHEM_COMPOUND_CANONICALIZED>
1

> <PUBCHEM_CACTVS_COMPLEXITY>
964

> <PUBCHEM_CACTVS_HBOND_ACCEPTOR>
10

> <PUBCHEM_CACTVS_HBOND_DONOR>
5

> <PUBCHEM_CACTVS_ROTATABLE_BOND>
0

> <PUBCHEM_CACTVS_SUBSKEYS>
AAADcfB/PAAAAAAAAAAAAAAAAAAAAAAAAAA8eNGCAAAAAACxVAAAHgAACAAADCzBmAYyBoMABgCAAiBCAACCCAAgIAAIiAAOjIgNNyKGsRuGeCvnwBWLuAew8P8OoAABCAAYQABAAAIQADCAAAAAAAAAAA==

> <PUBCHEM_IUPAC_OPENEYE_NAME>
(1S,14S)-15,30-dimethyl-7,23,33-trioxa-15,30-diazaoctacyclo[19.9.3.23,6.18,12.114,18.024,32.027,31.022,34]heptatriaconta-3(37),4,6(36),8,10,12(35),18,20,22(34),24,26,31-dodecaene-9,20,25-triol;methanol;hydrate

> <PUBCHEM_IUPAC_CAS_NAME>
(1S,14S)-15,30-dimethyl-7,23,33-trioxa-15,30-diazaoctacyclo[19.9.3.23,6.18,12.114,18.024,32.027,31.022,34]heptatriaconta-3(37),4,6(36),8,10,12(35),18,20,22(34),24,26,31-dodecaene-9,20,25-triol;methanol;hydrate

> <PUBCHEM_IUPAC_NAME_MARKUP>
(1<I>S</I>,14<I>S</I>)-15,30-dimethyl-7,23,33-trioxa-15,30-diazaoctacyclo[19.9.3.2<SUP>3,6</SUP>.1<SUP>8,12</SUP>.1<SUP>14,18</SUP>.0<SUP>24,32</SUP>.0<SUP>27,31</SUP>.0<SUP>22,34</SUP>]heptatriaconta-3(37),4,6(36),8,10,12(35),18,20,22(34),24,26,31-dodecaene-9,20,25-triol;methanol;hydrate

> <PUBCHEM_IUPAC_NAME>
(1S,14S)-15,30-dimethyl-7,23,33-trioxa-15,30-diazaoctacyclo[19.9.3.23,6.18,12.114,18.024,32.027,31.022,34]heptatriaconta-3(37),4,6(36),8,10,12(35),18,20,22(34),24,26,31-dodecaene-9,20,25-triol;methanol;hydrate

> <PUBCHEM_IUPAC_SYSTEMATIC_NAME>
(1S,14S)-15,30-dimethyl-7,23,33-trioxa-15,30-diazaoctacyclo[19.9.3.23,6.18,12.114,18.024,32.027,31.022,34]heptatriaconta-3(37),4,6(36),8,10,12(35),18,20,22(34),24,26,31-dodecaene-9,20,25-triol;methanol;hydrate

> <PUBCHEM_IUPAC_TRADITIONAL_NAME>
(1S,14S)-15,30-dimethyl-7,23,33-trioxa-15,30-diazaoctacyclo[19.9.3.23,6.18,12.114,18.024,32.027,31.022,34]heptatriaconta-3(37),4,6(36),8,10,12(35),18,20,22(34),24,26,31-dodecaene-9,20,25-triol;methanol;hydrate

> <PUBCHEM_IUPAC_INCHI>
InChI=1S/C34H32N2O6.CH4O.H2O/c1-35-11-9-20-16-26(38)31-33-29(20)23(35)13-18-3-6-22(7-4-18)40-28-15-19(5-8-25(28)37)14-24-30-21(10-12-36(24)2)17-27(39)32(41-33)34(30)42-31;1-2;/h3-8,15-17,23-24,37-39H,9-14H2,1-2H3;2H,1H3;1H2/t23-,24-;;/m0../s1

> <PUBCHEM_IUPAC_INCHIKEY>
RPESSPKYGBPBBL-WLKYSPGFSA-N

> <PUBCHEM_EXACT_MASS>
614.262816

> <PUBCHEM_MOLECULAR_FORMULA>
C35H38N2O8

> <PUBCHEM_MOLECULAR_WEIGHT>
614.7

> <PUBCHEM_OPENEYE_CAN_SMILES>
CN1CCC2=CC(=C3C4=C2C1CC5=CC=C(C=C5)OC6=C(C=CC(=C6)CC7C8=C(O3)C(=C(C=C8CCN7C)O)O4)O)O.CO.O

> <PUBCHEM_OPENEYE_ISO_SMILES>
CN1CCC2=CC(=C3C4=C2[C@@H]1CC5=CC=C(C=C5)OC6=C(C=CC(=C6)C[C@H]7C8=C(O3)C(=C(C=C8CCN7C)O)O4)O)O.CO.O

> <PUBCHEM_CACTVS_TPSA>
116

> <PUBCHEM_MONOISOTOPIC_WEIGHT>
614.262816

> <PUBCHEM_TOTAL_CHARGE>
0

> <PUBCHEM_HEAVY_ATOM_COUNT>
45

> <PUBCHEM_ATOM_DEF_STEREO_COUNT>
2

> <PUBCHEM_ATOM_UDEF_STEREO_COUNT>
0

> <PUBCHEM_BOND_DEF_STEREO_COUNT>
0

> <PUBCHEM_BOND_UDEF_STEREO_COUNT>
0

> <PUBCHEM_ISOTOPIC_ATOM_COUNT>
0

> <PUBCHEM_COMPONENT_COUNT>
3

> <PUBCHEM_CACTVS_TAUTO_COUNT>
-1

> <PUBCHEM_COORDINATE_TYPE>
1
5
255

> <PUBCHEM_BONDANNOTATIONS>
11  46  5
12  47  6
13  15  8
13  21  8
14  16  8
14  22  8
15  27  8
16  28  8
21  25  8
22  26  8
25  30  8
26  32  8
27  30  8
28  32  8
33  35  8
33  38  8
34  36  8
34  37  8
35  39  8
36  40  8
37  41  8
38  43  8
39  44  8
40  42  8
41  42  8
43  44  8

$$$$
53480666
  -OEChem-04052116402D

150151  0     1  0  0  0  0  0999 V2000
    7.7331   -4.6550    0.0000 O   0  0  0  0  0  0  0  0  0  0  0  0
    5.1350   -2.1550    0.0000 O   0  0  0  0  0  0  0  0  0  0  0  0
    6.0010   -3.6550    0.0000 O   0  0  0  0  0  0  0  0  0  0  0  0
    9.4651   -4.6550    0.0000 O   0  0  0  0  0  0  0  0  0  0  0  0
    6.0010   -6.6550    0.0000 O   0  0  0  0  0  0  0  0  0  0  0  0
    7.7331   -7.6550    0.0000 O   0  0  0  0  0  0  0  0  0  0  0  0
    9.4651   -6.6550    0.0000 O   0  0  0  0  0  0  0  0  0  0  0  0
    4.2690   -4.6550    0.0000 O   0  0  0  0  0  0  0  0  0  0  0  0
    2.5369   -3.6550    0.0000 O   0  0  0  0  0  0  0  0  0  0  0  0
    2.5369   -1.6550    0.0000 O   0  0  0  0  0  0  0  0  0  0  0  0
    5.1350   -0.1550    0.0000 O   0  0  0  0  0  0  0  0  0  0  0  0
   10.3312   -2.1550    0.0000 O   0  0  0  0  0  0  0  0  0  0  0  0
   12.0632   -3.1550    0.0000 O   0  0  0  0  0  0  0  0  0  0  0  0
   12.0632   -2.1550    0.0000 O   0  0  0  0  0  0  0  0  0  0  0  0
   12.9292   -4.6550    0.0000 O   0  0  0  0  0  0  0  0  0  0  0  0
    6.8671   -5.1550    0.0000 C   0  0  1  0  0  0  0  0  0  0  0  0
    6.8671   -6.1550    0.0000 C   0  0  1  0  0  0  0  0  0  0  0  0
    7.7331   -6.6550    0.0000 C   0  0  3  0  0  0  0  0  0  0  0  0
    8.5991   -6.1550    0.0000 C   0  0  3  0  0  0  0  0  0  0  0  0
    4.2690   -3.6550    0.0000 C   0  0  3  0  0  0  0  0  0  0  0  0
    5.1350   -3.1550    0.0000 C   0  0  1  0  0  0  0  0  0  0  0  0
    3.4030   -3.1550    0.0000 C   0  0  3  0  0  0  0  0  0  0  0  0
    3.4030   -2.1550    0.0000 C   0  0  2  0  0  0  0  0  0  0  0  0
    8.5991   -5.1550    0.0000 C   0  0  1  0  0  0  0  0  0  0  0  0
    4.2690   -1.6550    0.0000 C   0  0  1  0  0  0  0  0  0  0  0  0
    6.0010   -4.6550    0.0000 C   0  0  0  0  0  0  0  0  0  0  0  0
    4.2690   -0.6550    0.0000 C   0  0  0  0  0  0  0  0  0  0  0  0
    9.4651   -3.6550    0.0000 C   0  0  0  0  0  0  0  0  0  0  0  0
   10.3312   -3.1550    0.0000 C   0  0  1  0  0  0  0  0  0  0  0  0
   11.1972   -3.6550    0.0000 C   0  0  0  0  0  0  0  0  0  0  0  0
   11.1972   -1.6550    0.0000 C   0  0  0  0  0  0  0  0  0  0  0  0
   11.1972   -0.6550    0.0000 C   0  0  0  0  0  0  0  0  0  0  0  0
   12.0632   -0.1550    0.0000 C   0  0  0  0  0  0  0  0  0  0  0  0
   12.0632    0.8450    0.0000 C   0  0  0  0  0  0  0  0  0  0  0  0
   12.9292   -3.6550    0.0000 C   0  0  0  0  0  0  0  0  0  0  0  0
   13.7953   -3.1550    0.0000 C   0  0  0  0  0  0  0  0  0  0  0  0
   12.9292    1.3450    0.0000 C   0  0  0  0  0  0  0  0  0  0  0  0
   14.6613   -3.6550    0.0000 C   0  0  0  0  0  0  0  0  0  0  0  0
   15.5273   -3.1550    0.0000 C   0  0  0  0  0  0  0  0  0  0  0  0
   12.9292    2.3450    0.0000 C   0  0  0  0  0  0  0  0  0  0  0  0
   16.3933   -3.6550    0.0000 C   0  0  0  0  0  0  0  0  0  0  0  0
   13.7953    2.8450    0.0000 C   0  0  0  0  0  0  0  0  0  0  0  0
   17.2594   -3.1550    0.0000 C   0  0  0  0  0  0  0  0  0  0  0  0
   18.1254   -3.6550    0.0000 C   0  0  0  0  0  0  0  0  0  0  0  0
   13.7953    3.8450    0.0000 C   0  0  0  0  0  0  0  0  0  0  0  0
   18.9914   -3.1550    0.0000 C   0  0  0  0  0  0  0  0  0  0  0  0
   14.6613    4.3450    0.0000 C   0  0  0  0  0  0  0  0  0  0  0  0
   19.8574   -3.6550    0.0000 C   0  0  0  0  0  0  0  0  0  0  0  0
   14.6613    5.3450    0.0000 C   0  0  0  0  0  0  0  0  0  0  0  0
   20.7235   -3.1550    0.0000 C   0  0  0  0  0  0  0  0  0  0  0  0
   13.7953    5.8450    0.0000 C   0  0  0  0  0  0  0  0  0  0  0  0
   20.7235   -2.1550    0.0000 C   0  0  0  0  0  0  0  0  0  0  0  0
   13.7953    6.8450    0.0000 C   0  0  0  0  0  0  0  0  0  0  0  0
   21.5895   -1.6550    0.0000 C   0  0  0  0  0  0  0  0  0  0  0  0
   12.9292    7.3450    0.0000 C   0  0  0  0  0  0  0  0  0  0  0  0
   21.5895   -0.6550    0.0000 C   0  0  0  0  0  0  0  0  0  0  0  0
   12.0632    6.8450    0.0000 C   0  0  0  0  0  0  0  0  0  0  0  0
   20.7235   -0.1550    0.0000 C   0  0  0  0  0  0  0  0  0  0  0  0
   11.1972    7.3450    0.0000 C   0  0  0  0  0  0  0  0  0  0  0  0
   20.7235    0.8450    0.0000 C   0  0  0  0  0  0  0  0  0  0  0  0
   10.3312    6.8450    0.0000 C   0  0  0  0  0  0  0  0  0  0  0  0
   19.8574    1.3450    0.0000 C   0  0  0  0  0  0  0  0  0  0  0  0
   10.3312    5.8450    0.0000 C   0  0  0  0  0  0  0  0  0  0  0  0
   18.9914    0.8450    0.0000 C   0  0  0  0  0  0  0  0  0  0  0  0
    9.4651    5.3450    0.0000 C   0  0  0  0  0  0  0  0  0  0  0  0
   18.1254    1.3450    0.0000 C   0  0  0  0  0  0  0  0  0  0  0  0
    6.8671   -4.5350    0.0000 H   0  0  0  0  0  0  0  0  0  0  0  0
    6.8671   -6.7750    0.0000 H   0  0  0  0  0  0  0  0  0  0  0  0
    7.1962   -6.9650    0.0000 H   0  0  0  0  0  0  0  0  0  0  0  0
    8.5991   -6.7750    0.0000 H   0  0  0  0  0  0  0  0  0  0  0  0
    3.7320   -3.9650    0.0000 H   0  0  0  0  0  0  0  0  0  0  0  0
    5.1350   -3.7750    0.0000 H   0  0  0  0  0  0  0  0  0  0  0  0
    2.8660   -2.8450    0.0000 H   0  0  0  0  0  0  0  0  0  0  0  0
    3.4030   -1.5350    0.0000 H   0  0  0  0  0  0  0  0  0  0  0  0
    8.5991   -4.5350    0.0000 H   0  0  0  0  0  0  0  0  0  0  0  0
    4.8059   -1.3450    0.0000 H   0  0  0  0  0  0  0  0  0  0  0  0
    5.3905   -4.5473    0.0000 H   0  0  0  0  0  0  0  0  0  0  0  0
    5.7890   -5.2376    0.0000 H   0  0  0  0  0  0  0  0  0  0  0  0
    4.0569   -0.0724    0.0000 H   0  0  0  0  0  0  0  0  0  0  0  0
    3.6584   -0.7627    0.0000 H   0  0  0  0  0  0  0  0  0  0  0  0
    5.4641   -6.3450    0.0000 H   0  0  0  0  0  0  0  0  0  0  0  0
    7.1962   -7.9650    0.0000 H   0  0  0  0  0  0  0  0  0  0  0  0
   10.0021   -6.3450    0.0000 H   0  0  0  0  0  0  0  0  0  0  0  0
    3.7320   -4.9650    0.0000 H   0  0  0  0  0  0  0  0  0  0  0  0
    2.0000   -3.3450    0.0000 H   0  0  0  0  0  0  0  0  0  0  0  0
    2.5369   -1.0350    0.0000 H   0  0  0  0  0  0  0  0  0  0  0  0
    9.2531   -3.0724    0.0000 H   0  0  0  0  0  0  0  0  0  0  0  0
    8.8546   -3.7627    0.0000 H   0  0  0  0  0  0  0  0  0  0  0  0
    9.7942   -2.8450    0.0000 H   0  0  0  0  0  0  0  0  0  0  0  0
    5.1350    0.4650    0.0000 H   0  0  0  0  0  0  0  0  0  0  0  0
   10.7987   -4.1300    0.0000 H   0  0  0  0  0  0  0  0  0  0  0  0
   11.5957   -4.1300    0.0000 H   0  0  0  0  0  0  0  0  0  0  0  0
   10.9851   -0.0724    0.0000 H   0  0  0  0  0  0  0  0  0  0  0  0
   10.5866   -0.7627    0.0000 H   0  0  0  0  0  0  0  0  0  0  0  0
   12.2753   -0.7376    0.0000 H   0  0  0  0  0  0  0  0  0  0  0  0
   12.6738   -0.0473    0.0000 H   0  0  0  0  0  0  0  0  0  0  0  0
   11.8512    1.4276    0.0000 H   0  0  0  0  0  0  0  0  0  0  0  0
   11.4526    0.7373    0.0000 H   0  0  0  0  0  0  0  0  0  0  0  0
   14.1938   -2.6800    0.0000 H   0  0  0  0  0  0  0  0  0  0  0  0
   13.3967   -2.6800    0.0000 H   0  0  0  0  0  0  0  0  0  0  0  0
   13.1413    0.7624    0.0000 H   0  0  0  0  0  0  0  0  0  0  0  0
   13.5398    1.4527    0.0000 H   0  0  0  0  0  0  0  0  0  0  0  0
   14.2628   -4.1300    0.0000 H   0  0  0  0  0  0  0  0  0  0  0  0
   15.0598   -4.1300    0.0000 H   0  0  0  0  0  0  0  0  0  0  0  0
   15.9258   -2.6800    0.0000 H   0  0  0  0  0  0  0  0  0  0  0  0
   15.1288   -2.6800    0.0000 H   0  0  0  0  0  0  0  0  0  0  0  0
   12.7172    2.9276    0.0000 H   0  0  0  0  0  0  0  0  0  0  0  0
   12.3187    2.2373    0.0000 H   0  0  0  0  0  0  0  0  0  0  0  0
   15.9948   -4.1300    0.0000 H   0  0  0  0  0  0  0  0  0  0  0  0
   16.7919   -4.1300    0.0000 H   0  0  0  0  0  0  0  0  0  0  0  0
   14.0073    2.2624    0.0000 H   0  0  0  0  0  0  0  0  0  0  0  0
   14.4058    2.9527    0.0000 H   0  0  0  0  0  0  0  0  0  0  0  0
   17.6579   -2.6800    0.0000 H   0  0  0  0  0  0  0  0  0  0  0  0
   16.8608   -2.6800    0.0000 H   0  0  0  0  0  0  0  0  0  0  0  0
   17.7269   -4.1300    0.0000 H   0  0  0  0  0  0  0  0  0  0  0  0
   18.5239   -4.1300    0.0000 H   0  0  0  0  0  0  0  0  0  0  0  0
   13.5832    4.4276    0.0000 H   0  0  0  0  0  0  0  0  0  0  0  0
   13.1847    3.7373    0.0000 H   0  0  0  0  0  0  0  0  0  0  0  0
   19.3899   -2.6800    0.0000 H   0  0  0  0  0  0  0  0  0  0  0  0
   18.5929   -2.6800    0.0000 H   0  0  0  0  0  0  0  0  0  0  0  0
   15.1982    4.0350    0.0000 H   0  0  0  0  0  0  0  0  0  0  0  0
   19.8574   -4.2750    0.0000 H   0  0  0  0  0  0  0  0  0  0  0  0
   15.1982    5.6550    0.0000 H   0  0  0  0  0  0  0  0  0  0  0  0
   21.2604   -3.4650    0.0000 H   0  0  0  0  0  0  0  0  0  0  0  0
   13.1847    5.9527    0.0000 H   0  0  0  0  0  0  0  0  0  0  0  0
   13.5832    5.2624    0.0000 H   0  0  0  0  0  0  0  0  0  0  0  0
   20.5114   -1.5724    0.0000 H   0  0  0  0  0  0  0  0  0  0  0  0
   20.1129   -2.2627    0.0000 H   0  0  0  0  0  0  0  0  0  0  0  0
   14.3322    7.1550    0.0000 H   0  0  0  0  0  0  0  0  0  0  0  0
   22.1264   -1.9650    0.0000 H   0  0  0  0  0  0  0  0  0  0  0  0
   12.9292    7.9650    0.0000 H   0  0  0  0  0  0  0  0  0  0  0  0
   22.1264   -0.3450    0.0000 H   0  0  0  0  0  0  0  0  0  0  0  0
   11.6647    6.3700    0.0000 H   0  0  0  0  0  0  0  0  0  0  0  0
   12.4617    6.3700    0.0000 H   0  0  0  0  0  0  0  0  0  0  0  0
   20.1129   -0.0473    0.0000 H   0  0  0  0  0  0  0  0  0  0  0  0
   20.5114   -0.7376    0.0000 H   0  0  0  0  0  0  0  0  0  0  0  0
   11.1972    7.9650    0.0000 H   0  0  0  0  0  0  0  0  0  0  0  0
   21.2604    1.1550    0.0000 H   0  0  0  0  0  0  0  0  0  0  0  0
    9.7942    7.1550    0.0000 H   0  0  0  0  0  0  0  0  0  0  0  0
   19.8574    1.9650    0.0000 H   0  0  0  0  0  0  0  0  0  0  0  0
   10.5432    5.2624    0.0000 H   0  0  0  0  0  0  0  0  0  0  0  0
   10.9417    5.9527    0.0000 H   0  0  0  0  0  0  0  0  0  0  0  0
   18.5929    0.3701    0.0000 H   0  0  0  0  0  0  0  0  0  0  0  0
   19.3899    0.3701    0.0000 H   0  0  0  0  0  0  0  0  0  0  0  0
    9.1551    5.8819    0.0000 H   0  0  0  0  0  0  0  0  0  0  0  0
    8.9282    5.0350    0.0000 H   0  0  0  0  0  0  0  0  0  0  0  0
    9.7751    4.8081    0.0000 H   0  0  0  0  0  0  0  0  0  0  0  0
   18.4354    1.8819    0.0000 H   0  0  0  0  0  0  0  0  0  0  0  0
   17.5885    1.6550    0.0000 H   0  0  0  0  0  0  0  0  0  0  0  0
   17.8154    0.8081    0.0000 H   0  0  0  0  0  0  0  0  0  0  0  0
  1 16  1  0  0  0  0
  1 24  1  0  0  0  0
  2 21  1  0  0  0  0
  2 25  1  0  0  0  0
 21  3  1  1  0  0  0
  3 26  1  0  0  0  0
 24  4  1  1  0  0  0
  4 28  1  0  0  0  0
 17  5  1  1  0  0  0
  5 81  1  0  0  0  0
  6 18  1  0  0  0  0
  6 82  1  0  0  0  0
  7 19  1  0  0  0  0
  7 83  1  0  0  0  0
  8 20  1  0  0  0  0
  8 84  1  0  0  0  0
  9 22  1  0  0  0  0
  9 85  1  0  0  0  0
 23 10  1  1  0  0  0
 10 86  1  0  0  0  0
 11 27  1  0  0  0  0
 11 90  1  0  0  0  0
 29 12  1  6  0  0  0
 12 31  1  0  0  0  0
 13 30  1  0  0  0  0
 13 35  1  0  0  0  0
 14 31  2  0  0  0  0
 15 35  2  0  0  0  0
 16 17  1  0  0  0  0
 16 26  1  1  0  0  0
 16 67  1  0  0  0  0
 17 18  1  0  0  0  0
 17 68  1  0  0  0  0
 18 19  1  0  0  0  0
 18 69  1  0  0  0  0
 19 24  1  0  0  0  0
 19 70  1  0  0  0  0
 20 21  1  0  0  0  0
 20 22  1  0  0  0  0
 20 71  1  0  0  0  0
 21 72  1  0  0  0  0
 22 23  1  0  0  0  0
 22 73  1  0  0  0  0
 23 25  1  0  0  0  0
 23 74  1  0  0  0  0
 24 75  1  0  0  0  0
 25 27  1  1  0  0  0
 25 76  1  0  0  0  0
 26 77  1  0  0  0  0
 26 78  1  0  0  0  0
 27 79  1  0  0  0  0
 27 80  1  0  0  0  0
 28 29  1  0  0  0  0
 28 87  1  0  0  0  0
 28 88  1  0  0  0  0
 29 30  1  0  0  0  0
 29 89  1  0  0  0  0
 30 91  1  0  0  0  0
 30 92  1  0  0  0  0
 31 32  1  0  0  0  0
 32 33  1  0  0  0  0
 32 93  1  0  0  0  0
 32 94  1  0  0  0  0
 33 34  1  0  0  0  0
 33 95  1  0  0  0  0
 33 96  1  0  0  0  0
 34 37  1  0  0  0  0
 34 97  1  0  0  0  0
 34 98  1  0  0  0  0
 35 36  1  0  0  0  0
 36 38  1  0  0  0  0
 36 99  1  0  0  0  0
 36100  1  0  0  0  0
 37 40  1  0  0  0  0
 37101  1  0  0  0  0
 37102  1  0  0  0  0
 38 39  1  0  0  0  0
 38103  1  0  0  0  0
 38104  1  0  0  0  0
 39 41  1  0  0  0  0
 39105  1  0  0  0  0
 39106  1  0  0  0  0
 40 42  1  0  0  0  0
 40107  1  0  0  0  0
 40108  1  0  0  0  0
 41 43  1  0  0  0  0
 41109  1  0  0  0  0
 41110  1  0  0  0  0
 42 45  1  0  0  0  0
 42111  1  0  0  0  0
 42112  1  0  0  0  0
 43 44  1  0  0  0  0
 43113  1  0  0  0  0
 43114  1  0  0  0  0
 44 46  1  0  0  0  0
 44115  1  0  0  0  0
 44116  1  0  0  0  0
 45 47  1  0  0  0  0
 45117  1  0  0  0  0
 45118  1  0  0  0  0
 46 48  1  0  0  0  0
 46119  1  0  0  0  0
 46120  1  0  0  0  0
 47 49  2  0  0  0  0
 47121  1  0  0  0  0
 48 50  2  0  0  0  0
 48122  1  0  0  0  0
 49 51  1  0  0  0  0
 49123  1  0  0  0  0
 50 52  1  0  0  0  0
 50124  1  0  0  0  0
 51 53  1  0  0  0  0
 51125  1  0  0  0  0
 51126  1  0  0  0  0
 52 54  1  0  0  0  0
 52127  1  0  0  0  0
 52128  1  0  0  0  0
 53 55  2  0  0  0  0
 53129  1  0  0  0  0
 54 56  2  0  0  0  0
 54130  1  0  0  0  0
 55 57  1  0  0  0  0
 55131  1  0  0  0  0
 56 58  1  0  0  0  0
 56132  1  0  0  0  0
 57 59  1  0  0  0  0
 57133  1  0  0  0  0
 57134  1  0  0  0  0
 58 60  1  0  0  0  0
 58135  1  0  0  0  0
 58136  1  0  0  0  0
 59 61  2  0  0  0  0
 59137  1  0  0  0  0
 60 62  2  0  0  0  0
 60138  1  0  0  0  0
 61 63  1  0  0  0  0
 61139  1  0  0  0  0
 62 64  1  0  0  0  0
 62140  1  0  0  0  0
 63 65  1  0  0  0  0
 63141  1  0  0  0  0
 63142  1  0  0  0  0
 64 66  1  0  0  0  0
 64143  1  0  0  0  0
 64144  1  0  0  0  0
 65145  1  0  0  0  0
 65146  1  0  0  0  0
 65147  1  0  0  0  0
 66148  1  0  0  0  0
 66149  1  0  0  0  0
 66150  1  0  0  0  0
M  END
> <PUBCHEM_COMPOUND_CID>
53480666

> <PUBCHEM_COMPOUND_CANONICALIZED>
1

> <PUBCHEM_CACTVS_COMPLEXITY>
1430

> <PUBCHEM_CACTVS_HBOND_ACCEPTOR>
15

> <PUBCHEM_CACTVS_HBOND_DONOR>
7

> <PUBCHEM_CACTVS_ROTATABLE_BOND>
38

> <PUBCHEM_CACTVS_SUBSKEYS>
AAADcfB8PAAAAAAAAAAAAAAAAAAAAAAAAAAkSAAAAAAAAAAAAAAAGgAACAAACBSwgAMCCAAABgCIACDSCAAAAAAgAAAICAEAAAgREBIAAQAiQAAFgAAPAAPI6KyAAAAAAAAAAAAAAAAAAAAAAAAAAAAAAA==

> <PUBCHEM_IUPAC_OPENEYE_NAME>
[(2S)-2-[(9Z,12Z,15Z)-octadeca-9,12,15-trienoyl]oxy-3-[(2R,5R,6R)-3,4,5-trihydroxy-6-[[(2R,5R,6R)-3,4,5-trihydroxy-6-(hydroxymethyl)tetrahydropyran-2-yl]oxymethyl]tetrahydropyran-2-yl]oxy-propyl] (9Z,12Z,15Z)-octadeca-9,12,15-trienoate

> <PUBCHEM_IUPAC_CAS_NAME>
(9Z,12Z,15Z)-octadeca-9,12,15-trienoic acid [(2S)-2-[(9Z,12Z,15Z)-1-oxooctadeca-9,12,15-trienoxy]-3-[[(2R,5R,6R)-3,4,5-trihydroxy-6-[[(2R,5R,6R)-3,4,5-trihydroxy-6-(hydroxymethyl)-2-oxanyl]oxymethyl]-2-oxanyl]oxy]propyl] ester

> <PUBCHEM_IUPAC_NAME_MARKUP>
[(2<I>S</I>)-2-[(9<I>Z</I>,12<I>Z</I>,15<I>Z</I>)-octadeca-9,12,15-trienoyl]oxy-3-[(2<I>R</I>,5<I>R</I>,6<I>R</I>)-3,4,5-trihydroxy-6-[[(2<I>R</I>,5<I>R</I>,6<I>R</I>)-3,4,5-trihydroxy-6-(hydroxymethyl)oxan-2-yl]oxymethyl]oxan-2-yl]oxypropyl] (9<I>Z</I>,12<I>Z</I>,15<I>Z</I>)-octadeca-9,12,15-trienoate

> <PUBCHEM_IUPAC_NAME>
[(2S)-2-[(9Z,12Z,15Z)-octadeca-9,12,15-trienoyl]oxy-3-[(2R,5R,6R)-3,4,5-trihydroxy-6-[[(2R,5R,6R)-3,4,5-trihydroxy-6-(hydroxymethyl)oxan-2-yl]oxymethyl]oxan-2-yl]oxypropyl] (9Z,12Z,15Z)-octadeca-9,12,15-trienoate

> <PUBCHEM_IUPAC_SYSTEMATIC_NAME>
[(2S)-3-[(2R,5R,6R)-6-[[(2R,5R,6R)-6-(hydroxymethyl)-3,4,5-tris(oxidanyl)oxan-2-yl]oxymethyl]-3,4,5-tris(oxidanyl)oxan-2-yl]oxy-2-[(9Z,12Z,15Z)-octadeca-9,12,15-trienoyl]oxy-propyl] (9Z,12Z,15Z)-octadeca-9,12,15-trienoate

> <PUBCHEM_IUPAC_TRADITIONAL_NAME>
(9Z,12Z,15Z)-octadeca-9,12,15-trienoic acid [(2S)-2-[(9Z,12Z,15Z)-octadeca-9,12,15-trienoyl]oxy-3-[(2R,5R,6R)-3,4,5-trihydroxy-6-[[(2R,5R,6R)-3,4,5-trihydroxy-6-methylol-tetrahydropyran-2-yl]oxymethyl]tetrahydropyran-2-yl]oxy-propyl] ester

> <PUBCHEM_IUPAC_INCHI>
InChI=1S/C51H84O15/c1-3-5-7-9-11-13-15-17-19-21-23-25-27-29-31-33-42(53)61-36-39(64-43(54)34-32-30-28-26-24-22-20-18-16-14-12-10-8-6-4-2)37-62-50-49(60)47(58)45(56)41(66-50)38-63-51-48(59)46(57)44(55)40(35-52)65-51/h5-8,11-14,17-20,39-41,44-52,55-60H,3-4,9-10,15-16,21-38H2,1-2H3/b7-5-,8-6-,13-11-,14-12-,19-17-,20-18-/t39-,40-,41-,44+,45+,46?,47?,48?,49?,50-,51-/m1/s1

> <PUBCHEM_IUPAC_INCHIKEY>
KDYAPQVYJXUQNY-JTADZIJASA-N

> <PUBCHEM_XLOGP3_AA>
7.9

> <PUBCHEM_EXACT_MASS>
936.581022

> <PUBCHEM_MOLECULAR_FORMULA>
C51H84O15

> <PUBCHEM_MOLECULAR_WEIGHT>
937.2

> <PUBCHEM_OPENEYE_CAN_SMILES>
CCC=CCC=CCC=CCCCCCCCC(=O)OCC(COC1C(C(C(C(O1)COC2C(C(C(C(O2)CO)O)O)O)O)O)O)OC(=O)CCCCCCCC=CCC=CCC=CCC

> <PUBCHEM_OPENEYE_ISO_SMILES>
CC/C=C\C/C=C\C/C=C\CCCCCCCC(=O)OC[C@H](CO[C@H]1C(C([C@H]([C@H](O1)CO[C@H]2C(C([C@H]([C@H](O2)CO)O)O)O)O)O)O)OC(=O)CCCCCCC/C=C\C/C=C\C/C=C\CC

> <PUBCHEM_CACTVS_TPSA>
231

> <PUBCHEM_MONOISOTOPIC_WEIGHT>
936.581022

> <PUBCHEM_TOTAL_CHARGE>
0

> <PUBCHEM_HEAVY_ATOM_COUNT>
66

> <PUBCHEM_ATOM_DEF_STEREO_COUNT>
7

> <PUBCHEM_ATOM_UDEF_STEREO_COUNT>
4

> <PUBCHEM_BOND_DEF_STEREO_COUNT>
6

> <PUBCHEM_BOND_UDEF_STEREO_COUNT>
0

> <PUBCHEM_ISOTOPIC_ATOM_COUNT>
0

> <PUBCHEM_COMPONENT_COUNT>
1

> <PUBCHEM_CACTVS_TAUTO_COUNT>
-1

> <PUBCHEM_COORDINATE_TYPE>
1
5
255

> <PUBCHEM_BONDANNOTATIONS>
23  10  5
29  12  6
16  26  5
25  27  5
21  3  5
24  4  5
17  5  5
18  6  3
19  7  3
20  8  3
22  9  3

$$$$
49800081
  -OEChem-04052116402D

  9  6  0     0  0  0  0  0  0999 V2000
    0.0000    1.8660    0.0000 K   0  4  0  0  0  0  0  0  0  0  0  0
    3.6530    0.0000    0.0000 K   0  4  0  0  0  0  0  0  0  0  0  0
    3.9030    3.3660    0.0000 S   0  0  0  0  0  0  0  0  0  0  0  0
    4.7690    3.8660    0.0000 O   0  0  0  0  0  0  0  0  0  0  0  0
    3.0369    2.8660    0.0000 O   0  0  0  0  0  0  0  0  0  0  0  0
    3.4030    4.2320    0.0000 O   0  0  0  0  0  0  0  0  0  0  0  0
    4.4030    2.5000    0.0000 O   0  0  0  0  0  0  0  0  0  0  0  0
    5.3059    3.5560    0.0000 H   0  0  0  0  0  0  0  0  0  0  0  0
    2.5000    3.1760    0.0000 H   0  0  0  0  0  0  0  0  0  0  0  0
  3  4  1  0  0  0  0
  3  5  1  0  0  0  0
  3  6  2  0  0  0  0
  3  7  2  0  0  0  0
  4  8  1  0  0  0  0
  5  9  1  0  0  0  0
M  RAD  2   1   2   2   2
M  END
> <PUBCHEM_COMPOUND_CID>
49800081

> <PUBCHEM_COMPOUND_CANONICALIZED>
1

> <PUBCHEM_CACTVS_COMPLEXITY>
81.3

> <PUBCHEM_CACTVS_HBOND_ACCEPTOR>
4

> <PUBCHEM_CACTVS_HBOND_DONOR>
2

> <PUBCHEM_CACTVS_ROTATABLE_BOND>
0

> <PUBCHEM_CACTVS_SUBSKEYS>
AAADcQAAOABAYAAAAAAAAAAAAAAAAAAAAAAAAAAAAAAAAAAAAAAAAAAACAAAAAAAAAAAAAAAAIAAAAAAADAAAAAAAAAAAAAAAAAAAAAAAAAAAAAAAAAAAAAAAAAAAAAAAAAAAAAAAAAAAAAAAAAAAAAAAA==

> <PUBCHEM_IUPAC_INCHI>
InChI=1S/2K.H2O4S/c;;1-5(2,3)4/h;;(H2,1,2,3,4)

> <PUBCHEM_IUPAC_INCHIKEY>
RELBRYJDPFWCIM-UHFFFAOYSA-N

> <PUBCHEM_EXACT_MASS>
175.894793

> <PUBCHEM_MOLECULAR_FORMULA>
H2K2O4S

> <PUBCHEM_MOLECULAR_WEIGHT>
176.28

> <PUBCHEM_OPENEYE_CAN_SMILES>
OS(=O)(=O)O.[K].[K]

> <PUBCHEM_OPENEYE_ISO_SMILES>
OS(=O)(=O)O.[K].[K]

> <PUBCHEM_CACTVS_TPSA>
83

> <PUBCHEM_MONOISOTOPIC_WEIGHT>
175.894793

> <PUBCHEM_TOTAL_CHARGE>
0

> <PUBCHEM_HEAVY_ATOM_COUNT>
7

> <PUBCHEM_ATOM_DEF_STEREO_COUNT>
0

> <PUBCHEM_ATOM_UDEF_STEREO_COUNT>
0

> <PUBCHEM_BOND_DEF_STEREO_COUNT>
0

> <PUBCHEM_BOND_UDEF_STEREO_COUNT>
0

> <PUBCHEM_ISOTOPIC_ATOM_COUNT>
0

> <PUBCHEM_COMPONENT_COUNT>
3

> <PUBCHEM_CACTVS_TAUTO_COUNT>
-1

> <PUBCHEM_COORDINATE_TYPE>
1
5
255

$$$$
25262459
  -OEChem-04052116402D

 75 75  0     1  0  0  0  0  0999 V2000
    4.2690   -2.4050    0.0000 O   0  0  0  0  0  0  0  0  0  0  0  0
    6.0010   -2.4050    0.0000 O   0  0  0  0  0  0  0  0  0  0  0  0
    4.2690   -5.4050    0.0000 O   0  0  0  0  0  0  0  0  0  0  0  0
    2.5369   -4.4050    0.0000 O   0  0  0  0  0  0  0  0  0  0  0  0
    6.0010   -4.4050    0.0000 O   0  0  0  0  0  0  0  0  0  0  0  0
    2.5369   -1.4050    0.0000 O   0  0  0  0  0  0  0  0  0  0  0  0
    5.1350   -0.9050    0.0000 O   0  0  0  0  0  0  0  0  0  0  0  0
    4.2690   -4.4050    0.0000 C   0  0  1  0  0  0  0  0  0  0  0  0
    3.4030   -3.9050    0.0000 C   0  0  1  0  0  0  0  0  0  0  0  0
    5.1350   -3.9050    0.0000 C   0  0  1  0  0  0  0  0  0  0  0  0
    3.4030   -2.9050    0.0000 C   0  0  1  0  0  0  0  0  0  0  0  0
    5.1350   -2.9050    0.0000 C   0  0  3  0  0  0  0  0  0  0  0  0
    2.5369   -2.4050    0.0000 C   0  0  0  0  0  0  0  0  0  0  0  0
    6.8671    0.0950    0.0000 C   0  0  0  0  0  0  0  0  0  0  0  0
    6.8671   -0.9050    0.0000 C   0  0  0  0  0  0  0  0  0  0  0  0
    7.7331    0.5950    0.0000 C   0  0  0  0  0  0  0  0  0  0  0  0
    6.0010   -1.4050    0.0000 C   0  0  0  0  0  0  0  0  0  0  0  0
    7.7331    1.5950    0.0000 C   0  0  0  0  0  0  0  0  0  0  0  0
    8.5991    2.0950    0.0000 C   0  0  0  0  0  0  0  0  0  0  0  0
    8.5991    3.0950    0.0000 C   0  0  0  0  0  0  0  0  0  0  0  0
   13.7953    5.0950    0.0000 C   0  0  0  0  0  0  0  0  0  0  0  0
   12.9292    4.5950    0.0000 C   0  0  0  0  0  0  0  0  0  0  0  0
   14.6613    4.5950    0.0000 C   0  0  0  0  0  0  0  0  0  0  0  0
   12.0632    5.0950    0.0000 C   0  0  0  0  0  0  0  0  0  0  0  0
    9.4651    3.5950    0.0000 C   0  0  0  0  0  0  0  0  0  0  0  0
   15.5273    5.0950    0.0000 C   0  0  0  0  0  0  0  0  0  0  0  0
   11.1972    4.5950    0.0000 C   0  0  0  0  0  0  0  0  0  0  0  0
    9.4651    4.5950    0.0000 C   0  0  0  0  0  0  0  0  0  0  0  0
   10.3312    5.0950    0.0000 C   0  0  0  0  0  0  0  0  0  0  0  0
   16.3933    4.5950    0.0000 C   0  0  0  0  0  0  0  0  0  0  0  0
   17.2594    5.0950    0.0000 C   0  0  0  0  0  0  0  0  0  0  0  0
    4.8059   -4.7150    0.0000 H   0  0  0  0  0  0  0  0  0  0  0  0
    2.8660   -3.5950    0.0000 H   0  0  0  0  0  0  0  0  0  0  0  0
    5.6720   -3.5950    0.0000 H   0  0  0  0  0  0  0  0  0  0  0  0
    3.4030   -2.2850    0.0000 H   0  0  0  0  0  0  0  0  0  0  0  0
    5.1350   -2.2850    0.0000 H   0  0  0  0  0  0  0  0  0  0  0  0
    1.9264   -2.2973    0.0000 H   0  0  0  0  0  0  0  0  0  0  0  0
    2.3249   -2.9876    0.0000 H   0  0  0  0  0  0  0  0  0  0  0  0
    3.7320   -5.7150    0.0000 H   0  0  0  0  0  0  0  0  0  0  0  0
    2.0000   -4.0950    0.0000 H   0  0  0  0  0  0  0  0  0  0  0  0
    6.5380   -4.0950    0.0000 H   0  0  0  0  0  0  0  0  0  0  0  0
    6.6550    0.6776    0.0000 H   0  0  0  0  0  0  0  0  0  0  0  0
    6.2565   -0.0127    0.0000 H   0  0  0  0  0  0  0  0  0  0  0  0
    7.9451    0.0124    0.0000 H   0  0  0  0  0  0  0  0  0  0  0  0
    8.3437    0.7027    0.0000 H   0  0  0  0  0  0  0  0  0  0  0  0
    7.0791   -1.4876    0.0000 H   0  0  0  0  0  0  0  0  0  0  0  0
    7.4776   -0.7973    0.0000 H   0  0  0  0  0  0  0  0  0  0  0  0
    7.5210    2.1776    0.0000 H   0  0  0  0  0  0  0  0  0  0  0  0
    7.1225    1.4873    0.0000 H   0  0  0  0  0  0  0  0  0  0  0  0
    8.8112    1.5124    0.0000 H   0  0  0  0  0  0  0  0  0  0  0  0
    9.2097    2.2027    0.0000 H   0  0  0  0  0  0  0  0  0  0  0  0
    8.3871    3.6776    0.0000 H   0  0  0  0  0  0  0  0  0  0  0  0
    7.9885    2.9873    0.0000 H   0  0  0  0  0  0  0  0  0  0  0  0
    2.0000   -1.0950    0.0000 H   0  0  0  0  0  0  0  0  0  0  0  0
   14.1938    5.5700    0.0000 H   0  0  0  0  0  0  0  0  0  0  0  0
   13.3967    5.5700    0.0000 H   0  0  0  0  0  0  0  0  0  0  0  0
   12.5307    4.1200    0.0000 H   0  0  0  0  0  0  0  0  0  0  0  0
   13.3278    4.1200    0.0000 H   0  0  0  0  0  0  0  0  0  0  0  0
   14.2628    4.1200    0.0000 H   0  0  0  0  0  0  0  0  0  0  0  0
   15.0598    4.1200    0.0000 H   0  0  0  0  0  0  0  0  0  0  0  0
   12.4617    5.5700    0.0000 H   0  0  0  0  0  0  0  0  0  0  0  0
   11.6647    5.5700    0.0000 H   0  0  0  0  0  0  0  0  0  0  0  0
    9.6772    3.0124    0.0000 H   0  0  0  0  0  0  0  0  0  0  0  0
   10.0757    3.7027    0.0000 H   0  0  0  0  0  0  0  0  0  0  0  0
   15.9258    5.5700    0.0000 H   0  0  0  0  0  0  0  0  0  0  0  0
   15.1288    5.5700    0.0000 H   0  0  0  0  0  0  0  0  0  0  0  0
   10.7987    4.1200    0.0000 H   0  0  0  0  0  0  0  0  0  0  0  0
   11.5957    4.1200    0.0000 H   0  0  0  0  0  0  0  0  0  0  0  0
    8.9282    4.9050    0.0000 H   0  0  0  0  0  0  0  0  0  0  0  0
   10.3312    5.7150    0.0000 H   0  0  0  0  0  0  0  0  0  0  0  0
   15.9948    4.1200    0.0000 H   0  0  0  0  0  0  0  0  0  0  0  0
   16.7919    4.1200    0.0000 H   0  0  0  0  0  0  0  0  0  0  0  0
   17.5694    4.5581    0.0000 H   0  0  0  0  0  0  0  0  0  0  0  0
   17.7963    5.4050    0.0000 H   0  0  0  0  0  0  0  0  0  0  0  0
   16.9494    5.6319    0.0000 H   0  0  0  0  0  0  0  0  0  0  0  0
  1 11  1  0  0  0  0
  1 12  1  0  0  0  0
  2 12  1  0  0  0  0
  2 17  1  0  0  0  0
  8  3  1  1  0  0  0
  3 39  1  0  0  0  0
  9  4  1  6  0  0  0
  4 40  1  0  0  0  0
 10  5  1  1  0  0  0
  5 41  1  0  0  0  0
  6 13  1  0  0  0  0
  6 54  1  0  0  0  0
  7 17  2  0  0  0  0
  8  9  1  0  0  0  0
  8 10  1  0  0  0  0
  8 32  1  0  0  0  0
  9 11  1  0  0  0  0
  9 33  1  0  0  0  0
 10 12  1  0  0  0  0
 10 34  1  0  0  0  0
 11 13  1  1  0  0  0
 11 35  1  0  0  0  0
 12 36  1  0  0  0  0
 13 37  1  0  0  0  0
 13 38  1  0  0  0  0
 14 15  1  0  0  0  0
 14 16  1  0  0  0  0
 14 42  1  0  0  0  0
 14 43  1  0  0  0  0
 15 17  1  0  0  0  0
 15 46  1  0  0  0  0
 15 47  1  0  0  0  0
 16 18  1  0  0  0  0
 16 44  1  0  0  0  0
 16 45  1  0  0  0  0
 18 19  1  0  0  0  0
 18 48  1  0  0  0  0
 18 49  1  0  0  0  0
 19 20  1  0  0  0  0
 19 50  1  0  0  0  0
 19 51  1  0  0  0  0
 20 25  1  0  0  0  0
 20 52  1  0  0  0  0
 20 53  1  0  0  0  0
 21 22  1  0  0  0  0
 21 23  1  0  0  0  0
 21 55  1  0  0  0  0
 21 56  1  0  0  0  0
 22 24  1  0  0  0  0
 22 57  1  0  0  0  0
 22 58  1  0  0  0  0
 23 26  1  0  0  0  0
 23 59  1  0  0  0  0
 23 60  1  0  0  0  0
 24 27  1  0  0  0  0
 24 61  1  0  0  0  0
 24 62  1  0  0  0  0
 25 28  1  0  0  0  0
 25 63  1  0  0  0  0
 25 64  1  0  0  0  0
 26 30  1  0  0  0  0
 26 65  1  0  0  0  0
 26 66  1  0  0  0  0
 27 29  1  0  0  0  0
 27 67  1  0  0  0  0
 27 68  1  0  0  0  0
 28 29  2  0  0  0  0
 28 69  1  0  0  0  0
 29 70  1  0  0  0  0
 30 31  1  0  0  0  0
 30 71  1  0  0  0  0
 30 72  1  0  0  0  0
 31 73  1  0  0  0  0
 31 74  1  0  0  0  0
 31 75  1  0  0  0  0
M  END
> <PUBCHEM_COMPOUND_CID>
25262459

> <PUBCHEM_COMPOUND_CANONICALIZED>
1

> <PUBCHEM_CACTVS_COMPLEXITY>
483

> <PUBCHEM_CACTVS_HBOND_ACCEPTOR>
7

> <PUBCHEM_CACTVS_HBOND_DONOR>
4

> <PUBCHEM_CACTVS_ROTATABLE_BOND>
18

> <PUBCHEM_CACTVS_SUBSKEYS>
AAADcfB4OAAAAAAAAAAAAAAAAAAAAAAAAAAkAAAAAAAAAAAAAAAAGgAACAAACBSwgAMCCAAABgCIACDSCAAAAAAgAAAICAEAAAgREBIAAQAiQAAFgAAPAAPI6KyAAAAAAAAAAAAAAAAAAAAAAAAAAAAAAA==

> <PUBCHEM_IUPAC_OPENEYE_NAME>
[(3S,4S,5S,6R)-3,4,5-trihydroxy-6-(hydroxymethyl)tetrahydropyran-2-yl] (Z)-octadec-9-enoate

> <PUBCHEM_IUPAC_CAS_NAME>
(Z)-9-octadecenoic acid [(3S,4S,5S,6R)-3,4,5-trihydroxy-6-(hydroxymethyl)-2-oxanyl] ester

> <PUBCHEM_IUPAC_NAME_MARKUP>
[(3<I>S</I>,4<I>S</I>,5<I>S</I>,6<I>R</I>)-3,4,5-trihydroxy-6-(hydroxymethyl)oxan-2-yl] (<I>Z</I>)-octadec-9-enoate

> <PUBCHEM_IUPAC_NAME>
[(3S,4S,5S,6R)-3,4,5-trihydroxy-6-(hydroxymethyl)oxan-2-yl] (Z)-octadec-9-enoate

> <PUBCHEM_IUPAC_SYSTEMATIC_NAME>
[(3S,4S,5S,6R)-6-(hydroxymethyl)-3,4,5-tris(oxidanyl)oxan-2-yl] (Z)-octadec-9-enoate

> <PUBCHEM_IUPAC_TRADITIONAL_NAME>
(Z)-octadec-9-enoic acid [(3S,4S,5S,6R)-3,4,5-trihydroxy-6-methylol-tetrahydropyran-2-yl] ester

> <PUBCHEM_IUPAC_INCHI>
InChI=1S/C24H44O7/c1-2-3-4-5-6-7-8-9-10-11-12-13-14-15-16-17-20(26)31-24-23(29)22(28)21(27)19(18-25)30-24/h9-10,19,21-25,27-29H,2-8,11-18H2,1H3/b10-9-/t19-,21-,22+,23+,24?/m1/s1

> <PUBCHEM_IUPAC_INCHIKEY>
LUXUAZKGQZPOBZ-SAXJAHGMSA-N

> <PUBCHEM_XLOGP3_AA>
5.5

> <PUBCHEM_EXACT_MASS>
444.308704

> <PUBCHEM_MOLECULAR_FORMULA>
C24H44O7

> <PUBCHEM_MOLECULAR_WEIGHT>
444.6

> <PUBCHEM_OPENEYE_CAN_SMILES>
CCCCCCCCC=CCCCCCCCC(=O)OC1C(C(C(C(O1)CO)O)O)O

> <PUBCHEM_OPENEYE_ISO_SMILES>
CCCCCCCC/C=C\CCCCCCCC(=O)OC1[C@H]([C@H]([C@@H]([C@H](O1)CO)O)O)O

> <PUBCHEM_CACTVS_TPSA>
116

> <PUBCHEM_MONOISOTOPIC_WEIGHT>
444.308704

> <PUBCHEM_TOTAL_CHARGE>
0

> <PUBCHEM_HEAVY_ATOM_COUNT>
31

> <PUBCHEM_ATOM_DEF_STEREO_COUNT>
4

> <PUBCHEM_ATOM_UDEF_STEREO_COUNT>
1

> <PUBCHEM_BOND_DEF_STEREO_COUNT>
1

> <PUBCHEM_BOND_UDEF_STEREO_COUNT>
0

> <PUBCHEM_ISOTOPIC_ATOM_COUNT>
0

> <PUBCHEM_COMPONENT_COUNT>
1

> <PUBCHEM_CACTVS_TAUTO_COUNT>
-1

> <PUBCHEM_COORDINATE_TYPE>
1
5
255

> <PUBCHEM_BONDANNOTATIONS>
11  13  5
12  2  3
8  3  5
9  4  6
10  5  5

$$$$
23777801
  -OEChem-04052116402D

 73 76  0     1  0  0  0  0  0999 V2000
    6.8100   -0.9664    0.0000 O   0  0  0  0  0  0  0  0  0  0  0  0
    5.1920   -0.9664    0.0000 O   0  0  0  0  0  0  0  0  0  0  0  0
    5.1350   -2.0542    0.0000 O   0  0  0  0  0  0  0  0  0  0  0  0
    8.0356    0.8670    0.0000 O   0  0  0  0  0  0  0  0  0  0  0  0
    6.5218    1.7846    0.0000 O   0  0  0  0  0  0  0  0  0  0  0  0
    3.9664    0.8670    0.0000 O   0  0  0  0  0  0  0  0  0  0  0  0
    7.7331   -1.5542    0.0000 O   0  0  0  0  0  0  0  0  0  0  0  0
    7.7331   -3.5542    0.0000 O   0  0  0  0  0  0  0  0  0  0  0  0
    6.0010   -4.5542    0.0000 O   0  0  0  0  0  0  0  0  0  0  0  0
   10.0355    0.8439    0.0000 O   0  0  0  0  0  0  0  0  0  0  0  0
    7.0557    2.6105    0.0000 O   0  0  0  0  0  0  0  0  0  0  0  0
    5.4736    3.5167    0.0000 O   0  0  0  0  0  0  0  0  0  0  0  0
    2.5369   -3.5542    0.0000 O   0  0  0  0  0  0  0  0  0  0  0  0
   11.0555    2.5643    0.0000 N   0  0  0  0  0  0  0  0  0  0  0  0
    8.0757    4.3309    0.0000 N   0  0  0  0  0  0  0  0  0  0  0  0
    4.2690   -4.5542    0.0000 N   0  0  0  0  0  0  0  0  0  0  0  0
    6.5010   -0.0154    0.0000 C   0  0  1  0  0  0  0  0  0  0  0  0
    5.5010   -0.0154    0.0000 C   0  0  2  0  0  0  0  0  0  0  0  0
    6.0010   -1.5542    0.0000 C   0  0  2  0  0  0  0  0  0  0  0  0
    7.0357    0.8786    0.0000 C   0  0  2  0  0  0  0  0  0  0  0  0
    4.9664    0.8786    0.0000 C   0  0  2  0  0  0  0  0  0  0  0  0
    6.8671   -2.0542    0.0000 C   0  0  1  0  0  0  0  0  0  0  0  0
    8.5456    1.7272    0.0000 C   0  0  1  0  0  0  0  0  0  0  0  0
    5.4802    1.7846    0.0000 C   0  0  1  0  0  0  0  0  0  0  0  0
    6.8671   -3.0542    0.0000 C   0  0  2  0  0  0  0  0  0  0  0  0
    5.1350   -3.0542    0.0000 C   0  0  1  0  0  0  0  0  0  0  0  0
    6.0010   -3.5542    0.0000 C   0  0  2  0  0  0  0  0  0  0  0  0
    9.5456    1.7156    0.0000 C   0  0  1  0  0  0  0  0  0  0  0  0
    8.0557    2.5990    0.0000 C   0  0  2  0  0  0  0  0  0  0  0  0
   10.0555    2.5758    0.0000 C   0  0  2  0  0  0  0  0  0  0  0  0
    8.5656    3.4591    0.0000 C   0  0  1  0  0  0  0  0  0  0  0  0
    9.5656    3.4476    0.0000 C   0  0  0  0  0  0  0  0  0  0  0  0
    4.2690   -3.5542    0.0000 C   0  0  1  0  0  0  0  0  0  0  0  0
    4.9769    2.6487    0.0000 C   0  0  0  0  0  0  0  0  0  0  0  0
    3.4030   -3.0542    0.0000 C   0  0  0  0  0  0  0  0  0  0  0  0
   11.5654    3.4244    0.0000 C   0  0  0  0  0  0  0  0  0  0  0  0
    7.3457   -0.1107    0.0000 H   0  0  0  0  0  0  0  0  0  0  0  0
    4.6564   -0.1107    0.0000 H   0  0  0  0  0  0  0  0  0  0  0  0
    7.3384    0.3375    0.0000 H   0  0  0  0  0  0  0  0  0  0  0  0
    4.6636    0.3375    0.0000 H   0  0  0  0  0  0  0  0  0  0  0  0
    7.4040   -2.3642    0.0000 H   0  0  0  0  0  0  0  0  0  0  0  0
    7.9256    1.7344    0.0000 H   0  0  0  0  0  0  0  0  0  0  0  0
    5.7892    2.3222    0.0000 H   0  0  0  0  0  0  0  0  0  0  0  0
    6.8671   -3.6742    0.0000 H   0  0  0  0  0  0  0  0  0  0  0  0
    4.3989   -2.6292    0.0000 H   0  0  0  0  0  0  0  0  0  0  0  0
    6.5380   -3.8642    0.0000 H   0  0  0  0  0  0  0  0  0  0  0  0
   10.1655    1.7085    0.0000 H   0  0  0  0  0  0  0  0  0  0  0  0
    7.7519    3.1394    0.0000 H   0  0  0  0  0  0  0  0  0  0  0  0
   10.3717    3.1091    0.0000 H   0  0  0  0  0  0  0  0  0  0  0  0
    8.8818    3.9924    0.0000 H   0  0  0  0  0  0  0  0  0  0  0  0
   10.1506    3.6529    0.0000 H   0  0  0  0  0  0  0  0  0  0  0  0
    9.4650    4.0594    0.0000 H   0  0  0  0  0  0  0  0  0  0  0  0
    4.8059   -3.8642    0.0000 H   0  0  0  0  0  0  0  0  0  0  0  0
    4.5004    3.0454    0.0000 H   0  0  0  0  0  0  0  0  0  0  0  0
    4.5035    2.2484    0.0000 H   0  0  0  0  0  0  0  0  0  0  0  0
    3.6502    1.4003    0.0000 H   0  0  0  0  0  0  0  0  0  0  0  0
    8.2700   -1.8642    0.0000 H   0  0  0  0  0  0  0  0  0  0  0  0
   11.3592    2.0238    0.0000 H   0  0  0  0  0  0  0  0  0  0  0  0
    7.7331   -4.1742    0.0000 H   0  0  0  0  0  0  0  0  0  0  0  0
    8.3919    4.8642    0.0000 H   0  0  0  0  0  0  0  0  0  0  0  0
    7.4557    4.3381    0.0000 H   0  0  0  0  0  0  0  0  0  0  0  0
    3.8015   -2.5793    0.0000 H   0  0  0  0  0  0  0  0  0  0  0  0
    3.0044   -2.5793    0.0000 H   0  0  0  0  0  0  0  0  0  0  0  0
    6.5380   -4.8642    0.0000 H   0  0  0  0  0  0  0  0  0  0  0  0
   10.6555    0.8367    0.0000 H   0  0  0  0  0  0  0  0  0  0  0  0
    6.7520    3.1510    0.0000 H   0  0  0  0  0  0  0  0  0  0  0  0
    3.7320   -4.8642    0.0000 H   0  0  0  0  0  0  0  0  0  0  0  0
    4.8059   -4.8642    0.0000 H   0  0  0  0  0  0  0  0  0  0  0  0
   12.0988    3.1083    0.0000 H   0  0  0  0  0  0  0  0  0  0  0  0
   11.8816    3.9578    0.0000 H   0  0  0  0  0  0  0  0  0  0  0  0
   11.0321    3.7406    0.0000 H   0  0  0  0  0  0  0  0  0  0  0  0
    5.1615    4.0524    0.0000 H   0  0  0  0  0  0  0  0  0  0  0  0
    2.0000   -3.2442    0.0000 H   0  0  0  0  0  0  0  0  0  0  0  0
  1 17  1  0  0  0  0
  1 19  1  0  0  0  0
  2 18  1  0  0  0  0
  2 19  1  0  0  0  0
 19  3  1  1  0  0  0
  3 26  1  0  0  0  0
 20  4  1  1  0  0  0
 23  4  1  6  0  0  0
  5 20  1  0  0  0  0
  5 24  1  0  0  0  0
 21  6  1  1  0  0  0
  6 56  1  0  0  0  0
 22  7  1  6  0  0  0
  7 57  1  0  0  0  0
 25  8  1  1  0  0  0
  8 59  1  0  0  0  0
 27  9  1  1  0  0  0
  9 64  1  0  0  0  0
 28 10  1  1  0  0  0
 10 65  1  0  0  0  0
 29 11  1  1  0  0  0
 11 66  1  0  0  0  0
 12 34  1  0  0  0  0
 12 72  1  0  0  0  0
 13 35  1  0  0  0  0
 13 73  1  0  0  0  0
 30 14  1  6  0  0  0
 14 36  1  0  0  0  0
 14 58  1  0  0  0  0
 31 15  1  6  0  0  0
 15 60  1  0  0  0  0
 15 61  1  0  0  0  0
 33 16  1  6  0  0  0
 16 67  1  0  0  0  0
 16 68  1  0  0  0  0
 17 18  1  0  0  0  0
 17 20  1  0  0  0  0
 17 37  1  6  0  0  0
 18 21  1  0  0  0  0
 18 38  1  6  0  0  0
 19 22  1  0  0  0  0
 20 39  1  0  0  0  0
 21 24  1  0  0  0  0
 21 40  1  0  0  0  0
 22 25  1  0  0  0  0
 22 41  1  0  0  0  0
 23 28  1  0  0  0  0
 23 29  1  0  0  0  0
 23 42  1  0  0  0  0
 24 34  1  1  0  0  0
 24 43  1  0  0  0  0
 25 27  1  0  0  0  0
 25 44  1  0  0  0  0
 26 27  1  0  0  0  0
 26 33  1  0  0  0  0
 26 45  1  6  0  0  0
 27 46  1  0  0  0  0
 28 30  1  0  0  0  0
 28 47  1  0  0  0  0
 29 31  1  0  0  0  0
 29 48  1  0  0  0  0
 30 32  1  0  0  0  0
 30 49  1  0  0  0  0
 31 32  1  0  0  0  0
 31 50  1  0  0  0  0
 32 51  1  0  0  0  0
 32 52  1  0  0  0  0
 33 35  1  0  0  0  0
 33 53  1  0  0  0  0
 34 54  1  0  0  0  0
 34 55  1  0  0  0  0
 35 62  1  0  0  0  0
 35 63  1  0  0  0  0
 36 69  1  0  0  0  0
 36 70  1  0  0  0  0
 36 71  1  0  0  0  0
M  END
> <PUBCHEM_COMPOUND_CID>
23777801

> <PUBCHEM_COMPOUND_CANONICALIZED>
1

> <PUBCHEM_CACTVS_COMPLEXITY>
756

> <PUBCHEM_CACTVS_HBOND_ACCEPTOR>
16

> <PUBCHEM_CACTVS_HBOND_DONOR>
11

> <PUBCHEM_CACTVS_ROTATABLE_BOND>
6

> <PUBCHEM_CACTVS_SUBSKEYS>
AAADcfB7PAAAAAAAAAAAAAAAAAAAASAAAAA0SIAAAAAAAEgAAAAAHgAQCAAACDzxgAcCCALABgAAAAAAAAAAAAAAAAAAAIAIAAATEAIAwAAnQAAHEAAXAAHw8C8AAAAAAAAAAAAAgAAUCACgAAAAAAAAAA==

> <PUBCHEM_IUPAC_OPENEYE_NAME>
(2S,3'R,3aS,4S,4'S,5'R,6R,6'R,7S,7aS)-4-[(1R,2S,3R,5S,6R)-3-amino-2,6-dihydroxy-5-(methylamino)cyclohexoxy]-6'-[(1R)-1-amino-2-hydroxy-ethyl]-6-(hydroxymethyl)spiro[4,6,7,7a-tetrahydro-3aH-[1,3]dioxolo[4,5-c]pyran-2,2'-tetrahydropyran]-3',4',5',7-tetrol

> <PUBCHEM_IUPAC_CAS_NAME>
(2S,3'R,3aS,4S,4'S,5'R,6R,6'R,7S,7aS)-4-[(1R,2S,3R,5S,6R)-3-amino-2,6-dihydroxy-5-(methylamino)cyclohexyl]oxy-6'-[(1R)-1-amino-2-hydroxyethyl]-6-(hydroxymethyl)spiro[4,6,7,7a-tetrahydro-3aH-[1,3]dioxolo[4,5-c]pyran-2,2'-oxane]-3',4',5',7-tetrol

> <PUBCHEM_IUPAC_NAME_MARKUP>
(2<I>S</I>,3&apos;<I>R</I>,3<I>a</I><I>S</I>,4<I>S</I>,4&apos;<I>S</I>,5&apos;<I>R</I>,6<I>R</I>,6&apos;<I>R</I>,7<I>S</I>,7<I>a</I><I>S</I>)-4-[(1<I>R</I>,2<I>S</I>,3<I>R</I>,5<I>S</I>,6<I>R</I>)-3-amino-2,6-dihydroxy-5-(methylamino)cyclohexyl]oxy-6&apos;-[(1<I>R</I>)-1-amino-2-hydroxyethyl]-6-(hydroxymethyl)spiro[4,6,7,7<I>a</I>-tetrahydro-3<I>a</I><I>H</I>-[1,3]dioxolo[4,5-c]pyran-2,2&apos;-oxane]-3&apos;,4&apos;,5&apos;,7-tetrol

> <PUBCHEM_IUPAC_NAME>
(2S,3'R,3aS,4S,4'S,5'R,6R,6'R,7S,7aS)-4-[(1R,2S,3R,5S,6R)-3-amino-2,6-dihydroxy-5-(methylamino)cyclohexyl]oxy-6'-[(1R)-1-amino-2-hydroxyethyl]-6-(hydroxymethyl)spiro[4,6,7,7a-tetrahydro-3aH-[1,3]dioxolo[4,5-c]pyran-2,2'-oxane]-3',4',5',7-tetrol

> <PUBCHEM_IUPAC_SYSTEMATIC_NAME>
(2S,3'R,3aS,4S,4'S,5'R,6R,6'R,7S,7aS)-4-[(1R,2S,3R,5S,6R)-3-azanyl-5-(methylamino)-2,6-bis(oxidanyl)cyclohexyl]oxy-6'-[(1R)-1-azanyl-2-oxidanyl-ethyl]-6-(hydroxymethyl)spiro[4,6,7,7a-tetrahydro-3aH-[1,3]dioxolo[4,5-c]pyran-2,2'-oxane]-3',4',5',7-tetrol

> <PUBCHEM_IUPAC_TRADITIONAL_NAME>
(2S,3'R,3aS,4S,4'S,5'R,6R,6'R,7S,7aS)-4-[(1R,2S,3R,5S,6R)-3-amino-2,6-dihydroxy-5-(methylamino)cyclohexoxy]-6'-[(1R)-1-amino-2-hydroxy-ethyl]-6-methylol-spiro[4,6,7,7a-tetrahydro-3aH-[1,3]dioxolo[4,5-c]pyran-2,2'-tetrahydropyran]-3',4',5',7-tetrol

> <PUBCHEM_IUPAC_INCHI>
InChI=1S/C20H37N3O13/c1-23-7-2-5(21)9(26)15(10(7)27)33-19-17-16(11(28)8(4-25)32-19)35-20(36-17)18(31)13(30)12(29)14(34-20)6(22)3-24/h5-19,23-31H,2-4,21-22H2,1H3/t5-,6-,7+,8-,9+,10-,11+,12-,13+,14-,15-,16+,17+,18-,19+,20+/m1/s1

> <PUBCHEM_IUPAC_INCHIKEY>
GRRNUXAQVGOGFE-XKIAHZFYSA-N

> <PUBCHEM_XLOGP3_AA>
-6.6

> <PUBCHEM_EXACT_MASS>
527.232638

> <PUBCHEM_MOLECULAR_FORMULA>
C20H37N3O13

> <PUBCHEM_MOLECULAR_WEIGHT>
527.5

> <PUBCHEM_OPENEYE_CAN_SMILES>
CNC1CC(C(C(C1O)OC2C3C(C(C(O2)CO)O)OC4(O3)C(C(C(C(O4)C(CO)N)O)O)O)O)N

> <PUBCHEM_OPENEYE_ISO_SMILES>
CN[C@H]1C[C@H]([C@@H]([C@H]([C@@H]1O)O[C@H]2[C@@H]3[C@H]([C@H]([C@H](O2)CO)O)O[C@]4(O3)[C@@H]([C@H]([C@H]([C@H](O4)[C@@H](CO)N)O)O)O)O)N

> <PUBCHEM_CACTVS_TPSA>
272

> <PUBCHEM_MONOISOTOPIC_WEIGHT>
527.232638

> <PUBCHEM_TOTAL_CHARGE>
0

> <PUBCHEM_HEAVY_ATOM_COUNT>
36

> <PUBCHEM_ATOM_DEF_STEREO_COUNT>
16

> <PUBCHEM_ATOM_UDEF_STEREO_COUNT>
0

> <PUBCHEM_BOND_DEF_STEREO_COUNT>
0

> <PUBCHEM_BOND_UDEF_STEREO_COUNT>
0

> <PUBCHEM_ISOTOPIC_ATOM_COUNT>
0

> <PUBCHEM_COMPONENT_COUNT>
1

> <PUBCHEM_CACTVS_TAUTO_COUNT>
-1

> <PUBCHEM_COORDINATE_TYPE>
1
5
255

> <PUBCHEM_BONDANNOTATIONS>
28  10  5
29  11  5
30  14  6
31  15  6
33  16  6
17  37  6
18  38  6
24  34  5
26  45  6
19  3  5
20  4  5
23  4  6
21  6  5
22  7  6
25  8  5
27  9  5

$$$$
23706254
  -OEChem-04052116402D

115113  0     1  0  0  0  0  0999 V2000
    3.4030   -6.5670    0.0000 P   0  0  3  0  0  0  0  0  0  0  0  0
    3.4030   -4.8349    0.0000 Na  0  3  0  0  0  0  0  0  0  0  0  0
    6.8671   -4.5670    0.0000 O   0  0  0  0  0  0  0  0  0  0  0  0
    6.8671   -6.5670    0.0000 O   0  0  0  0  0  0  0  0  0  0  0  0
    6.0010   -3.0670    0.0000 O   0  0  0  0  0  0  0  0  0  0  0  0
    4.2690   -6.0670    0.0000 O   0  0  0  0  0  0  0  0  0  0  0  0
    7.7331   -5.0670    0.0000 O   0  0  0  0  0  0  0  0  0  0  0  0
    2.9030   -5.7010    0.0000 O   0  5  0  0  0  0  0  0  0  0  0  0
    2.5369   -7.0670    0.0000 O   0  0  0  0  0  0  0  0  0  0  0  0
    3.9030   -7.4330    0.0000 O   0  0  0  0  0  0  0  0  0  0  0  0
   10.3312    1.4330    0.0000 C   0  0  0  0  0  0  0  0  0  0  0  0
   10.3312    2.4330    0.0000 C   0  0  0  0  0  0  0  0  0  0  0  0
    9.4651    0.9330    0.0000 C   0  0  0  0  0  0  0  0  0  0  0  0
   11.1972    2.9330    0.0000 C   0  0  0  0  0  0  0  0  0  0  0  0
   11.1972    3.9330    0.0000 C   0  0  0  0  0  0  0  0  0  0  0  0
    9.4651   -0.0670    0.0000 C   0  0  0  0  0  0  0  0  0  0  0  0
   12.0632    4.4330    0.0000 C   0  0  0  0  0  0  0  0  0  0  0  0
    8.5991   -0.5670    0.0000 C   0  0  0  0  0  0  0  0  0  0  0  0
   12.0632    5.4330    0.0000 C   0  0  0  0  0  0  0  0  0  0  0  0
    8.5991   -1.5670    0.0000 C   0  0  0  0  0  0  0  0  0  0  0  0
   12.9292    5.9330    0.0000 C   0  0  0  0  0  0  0  0  0  0  0  0
    7.7331   -2.0670    0.0000 C   0  0  0  0  0  0  0  0  0  0  0  0
   12.9292    6.9330    0.0000 C   0  0  0  0  0  0  0  0  0  0  0  0
    7.7331   -3.0670    0.0000 C   0  0  0  0  0  0  0  0  0  0  0  0
   13.7953    7.4330    0.0000 C   0  0  0  0  0  0  0  0  0  0  0  0
    6.8671   -3.5670    0.0000 C   0  0  0  0  0  0  0  0  0  0  0  0
   10.3312   -6.5670    0.0000 C   0  0  0  0  0  0  0  0  0  0  0  0
   11.1972   -6.0670    0.0000 C   0  0  0  0  0  0  0  0  0  0  0  0
    9.4651   -6.0670    0.0000 C   0  0  0  0  0  0  0  0  0  0  0  0
   12.0632   -6.5670    0.0000 C   0  0  0  0  0  0  0  0  0  0  0  0
    8.5991   -6.5670    0.0000 C   0  0  0  0  0  0  0  0  0  0  0  0
    6.0010   -6.0670    0.0000 C   0  0  2  0  0  0  0  0  0  0  0  0
    6.0010   -5.0670    0.0000 C   0  0  0  0  0  0  0  0  0  0  0  0
   12.9292   -6.0670    0.0000 C   0  0  0  0  0  0  0  0  0  0  0  0
   13.7953   -1.5670    0.0000 C   0  0  0  0  0  0  0  0  0  0  0  0
    7.7331   -6.0670    0.0000 C   0  0  0  0  0  0  0  0  0  0  0  0
    5.1350   -6.5670    0.0000 C   0  0  0  0  0  0  0  0  0  0  0  0
   14.6613   -2.0670    0.0000 C   0  0  0  0  0  0  0  0  0  0  0  0
   13.7953   -0.5670    0.0000 C   0  0  0  0  0  0  0  0  0  0  0  0
   13.7953   -6.5670    0.0000 C   0  0  0  0  0  0  0  0  0  0  0  0
   14.6613   -3.0670    0.0000 C   0  0  0  0  0  0  0  0  0  0  0  0
   14.6613   -0.0670    0.0000 C   0  0  0  0  0  0  0  0  0  0  0  0
   14.6613   -6.0670    0.0000 C   0  0  0  0  0  0  0  0  0  0  0  0
   14.6613   -5.0670    0.0000 C   0  0  0  0  0  0  0  0  0  0  0  0
   15.5273   -3.5670    0.0000 C   0  0  0  0  0  0  0  0  0  0  0  0
   15.5273   -4.5670    0.0000 C   0  0  0  0  0  0  0  0  0  0  0  0
   14.6613    0.9330    0.0000 C   0  0  0  0  0  0  0  0  0  0  0  0
   10.5432    0.8504    0.0000 H   0  0  0  0  0  0  0  0  0  0  0  0
   10.9417    1.5407    0.0000 H   0  0  0  0  0  0  0  0  0  0  0  0
   10.1191    3.0156    0.0000 H   0  0  0  0  0  0  0  0  0  0  0  0
    9.7206    2.3253    0.0000 H   0  0  0  0  0  0  0  0  0  0  0  0
    9.2531    1.5156    0.0000 H   0  0  0  0  0  0  0  0  0  0  0  0
    8.8546    0.8254    0.0000 H   0  0  0  0  0  0  0  0  0  0  0  0
   11.4092    2.3504    0.0000 H   0  0  0  0  0  0  0  0  0  0  0  0
   11.8078    3.0407    0.0000 H   0  0  0  0  0  0  0  0  0  0  0  0
   10.9851    4.5156    0.0000 H   0  0  0  0  0  0  0  0  0  0  0  0
   10.5866    3.8254    0.0000 H   0  0  0  0  0  0  0  0  0  0  0  0
    9.6772   -0.6496    0.0000 H   0  0  0  0  0  0  0  0  0  0  0  0
   10.0757    0.0407    0.0000 H   0  0  0  0  0  0  0  0  0  0  0  0
   12.2753    3.8504    0.0000 H   0  0  0  0  0  0  0  0  0  0  0  0
   12.6738    4.5407    0.0000 H   0  0  0  0  0  0  0  0  0  0  0  0
    8.3871    0.0156    0.0000 H   0  0  0  0  0  0  0  0  0  0  0  0
    7.9885   -0.6746    0.0000 H   0  0  0  0  0  0  0  0  0  0  0  0
   11.8512    6.0156    0.0000 H   0  0  0  0  0  0  0  0  0  0  0  0
   11.4526    5.3254    0.0000 H   0  0  0  0  0  0  0  0  0  0  0  0
    8.8112   -2.1496    0.0000 H   0  0  0  0  0  0  0  0  0  0  0  0
    9.2097   -1.4593    0.0000 H   0  0  0  0  0  0  0  0  0  0  0  0
   13.1413    5.3504    0.0000 H   0  0  0  0  0  0  0  0  0  0  0  0
   13.5398    6.0407    0.0000 H   0  0  0  0  0  0  0  0  0  0  0  0
    7.5210   -1.4844    0.0000 H   0  0  0  0  0  0  0  0  0  0  0  0
    7.1225   -2.1747    0.0000 H   0  0  0  0  0  0  0  0  0  0  0  0
   12.7172    7.5156    0.0000 H   0  0  0  0  0  0  0  0  0  0  0  0
   12.3187    6.8254    0.0000 H   0  0  0  0  0  0  0  0  0  0  0  0
    7.9451   -3.6496    0.0000 H   0  0  0  0  0  0  0  0  0  0  0  0
    8.3437   -2.9593    0.0000 H   0  0  0  0  0  0  0  0  0  0  0  0
   14.1053    6.8961    0.0000 H   0  0  0  0  0  0  0  0  0  0  0  0
   14.3322    7.7430    0.0000 H   0  0  0  0  0  0  0  0  0  0  0  0
   13.4853    7.9700    0.0000 H   0  0  0  0  0  0  0  0  0  0  0  0
    9.9326   -7.0419    0.0000 H   0  0  0  0  0  0  0  0  0  0  0  0
   10.7297   -7.0419    0.0000 H   0  0  0  0  0  0  0  0  0  0  0  0
   11.5957   -5.5920    0.0000 H   0  0  0  0  0  0  0  0  0  0  0  0
   10.7987   -5.5920    0.0000 H   0  0  0  0  0  0  0  0  0  0  0  0
    9.8637   -5.5920    0.0000 H   0  0  0  0  0  0  0  0  0  0  0  0
    9.0666   -5.5920    0.0000 H   0  0  0  0  0  0  0  0  0  0  0  0
   11.6647   -7.0419    0.0000 H   0  0  0  0  0  0  0  0  0  0  0  0
   12.4617   -7.0419    0.0000 H   0  0  0  0  0  0  0  0  0  0  0  0
    8.2006   -7.0419    0.0000 H   0  0  0  0  0  0  0  0  0  0  0  0
    8.9976   -7.0419    0.0000 H   0  0  0  0  0  0  0  0  0  0  0  0
    6.5380   -5.7570    0.0000 H   0  0  0  0  0  0  0  0  0  0  0  0
    5.7890   -4.4844    0.0000 H   0  0  0  0  0  0  0  0  0  0  0  0
    5.3905   -5.1746    0.0000 H   0  0  0  0  0  0  0  0  0  0  0  0
   13.3278   -5.5920    0.0000 H   0  0  0  0  0  0  0  0  0  0  0  0
   12.5307   -5.5920    0.0000 H   0  0  0  0  0  0  0  0  0  0  0  0
   13.1847   -1.4593    0.0000 H   0  0  0  0  0  0  0  0  0  0  0  0
   13.5832   -2.1496    0.0000 H   0  0  0  0  0  0  0  0  0  0  0  0
   15.2719   -2.1747    0.0000 H   0  0  0  0  0  0  0  0  0  0  0  0
   14.8733   -1.4844    0.0000 H   0  0  0  0  0  0  0  0  0  0  0  0
    4.7365   -7.0419    0.0000 H   0  0  0  0  0  0  0  0  0  0  0  0
    5.5335   -7.0419    0.0000 H   0  0  0  0  0  0  0  0  0  0  0  0
   13.5832    0.0156    0.0000 H   0  0  0  0  0  0  0  0  0  0  0  0
   13.1847   -0.6746    0.0000 H   0  0  0  0  0  0  0  0  0  0  0  0
   13.7953   -7.1870    0.0000 H   0  0  0  0  0  0  0  0  0  0  0  0
   14.0507   -2.9593    0.0000 H   0  0  0  0  0  0  0  0  0  0  0  0
   14.4492   -3.6496    0.0000 H   0  0  0  0  0  0  0  0  0  0  0  0
   14.8733   -0.6496    0.0000 H   0  0  0  0  0  0  0  0  0  0  0  0
   15.2719    0.0407    0.0000 H   0  0  0  0  0  0  0  0  0  0  0  0
   15.1982   -6.3770    0.0000 H   0  0  0  0  0  0  0  0  0  0  0  0
   14.4492   -4.4844    0.0000 H   0  0  0  0  0  0  0  0  0  0  0  0
   14.0507   -5.1746    0.0000 H   0  0  0  0  0  0  0  0  0  0  0  0
   16.0643   -3.2570    0.0000 H   0  0  0  0  0  0  0  0  0  0  0  0
   16.0643   -4.8770    0.0000 H   0  0  0  0  0  0  0  0  0  0  0  0
   15.2813    0.9330    0.0000 H   0  0  0  0  0  0  0  0  0  0  0  0
   14.6613    1.5530    0.0000 H   0  0  0  0  0  0  0  0  0  0  0  0
   14.0413    0.9330    0.0000 H   0  0  0  0  0  0  0  0  0  0  0  0
    2.0000   -6.7570    0.0000 H   0  0  0  0  0  0  0  0  0  0  0  0
  1  6  1  0  0  0  0
  1  8  1  0  0  0  0
  1  9  1  0  0  0  0
  1 10  2  0  0  0  0
  3 26  1  0  0  0  0
  3 33  1  0  0  0  0
 32  4  1  1  0  0  0
  4 36  1  0  0  0  0
  5 26  2  0  0  0  0
  6 37  1  0  0  0  0
  7 36  2  0  0  0  0
  9115  1  0  0  0  0
 11 12  1  0  0  0  0
 11 13  1  0  0  0  0
 11 48  1  0  0  0  0
 11 49  1  0  0  0  0
 12 14  1  0  0  0  0
 12 50  1  0  0  0  0
 12 51  1  0  0  0  0
 13 16  1  0  0  0  0
 13 52  1  0  0  0  0
 13 53  1  0  0  0  0
 14 15  1  0  0  0  0
 14 54  1  0  0  0  0
 14 55  1  0  0  0  0
 15 17  1  0  0  0  0
 15 56  1  0  0  0  0
 15 57  1  0  0  0  0
 16 18  1  0  0  0  0
 16 58  1  0  0  0  0
 16 59  1  0  0  0  0
 17 19  1  0  0  0  0
 17 60  1  0  0  0  0
 17 61  1  0  0  0  0
 18 20  1  0  0  0  0
 18 62  1  0  0  0  0
 18 63  1  0  0  0  0
 19 21  1  0  0  0  0
 19 64  1  0  0  0  0
 19 65  1  0  0  0  0
 20 22  1  0  0  0  0
 20 66  1  0  0  0  0
 20 67  1  0  0  0  0
 21 23  1  0  0  0  0
 21 68  1  0  0  0  0
 21 69  1  0  0  0  0
 22 24  1  0  0  0  0
 22 70  1  0  0  0  0
 22 71  1  0  0  0  0
 23 25  1  0  0  0  0
 23 72  1  0  0  0  0
 23 73  1  0  0  0  0
 24 26  1  0  0  0  0
 24 74  1  0  0  0  0
 24 75  1  0  0  0  0
 25 76  1  0  0  0  0
 25 77  1  0  0  0  0
 25 78  1  0  0  0  0
 27 28  1  0  0  0  0
 27 29  1  0  0  0  0
 27 79  1  0  0  0  0
 27 80  1  0  0  0  0
 28 30  1  0  0  0  0
 28 81  1  0  0  0  0
 28 82  1  0  0  0  0
 29 31  1  0  0  0  0
 29 83  1  0  0  0  0
 29 84  1  0  0  0  0
 30 34  1  0  0  0  0
 30 85  1  0  0  0  0
 30 86  1  0  0  0  0
 31 36  1  0  0  0  0
 31 87  1  0  0  0  0
 31 88  1  0  0  0  0
 32 33  1  0  0  0  0
 32 37  1  0  0  0  0
 32 89  1  0  0  0  0
 33 90  1  0  0  0  0
 33 91  1  0  0  0  0
 34 40  1  0  0  0  0
 34 92  1  0  0  0  0
 34 93  1  0  0  0  0
 35 38  1  0  0  0  0
 35 39  1  0  0  0  0
 35 94  1  0  0  0  0
 35 95  1  0  0  0  0
 37 98  1  0  0  0  0
 37 99  1  0  0  0  0
 38 41  1  0  0  0  0
 38 96  1  0  0  0  0
 38 97  1  0  0  0  0
 39 42  1  0  0  0  0
 39100  1  0  0  0  0
 39101  1  0  0  0  0
 40 43  2  0  0  0  0
 40102  1  0  0  0  0
 41 45  1  0  0  0  0
 41103  1  0  0  0  0
 41104  1  0  0  0  0
 42 47  1  0  0  0  0
 42105  1  0  0  0  0
 42106  1  0  0  0  0
 43 44  1  0  0  0  0
 43107  1  0  0  0  0
 44 46  1  0  0  0  0
 44108  1  0  0  0  0
 44109  1  0  0  0  0
 45 46  2  0  0  0  0
 45110  1  0  0  0  0
 46111  1  0  0  0  0
 47112  1  0  0  0  0
 47113  1  0  0  0  0
 47114  1  0  0  0  0
M  CHG  2   2   1   8  -1
M  END
> <PUBCHEM_COMPOUND_CID>
23706254

> <PUBCHEM_COMPOUND_CANONICALIZED>
1

> <PUBCHEM_CACTVS_COMPLEXITY>
820

> <PUBCHEM_CACTVS_HBOND_ACCEPTOR>
8

> <PUBCHEM_CACTVS_HBOND_DONOR>
1

> <PUBCHEM_CACTVS_ROTATABLE_BOND>
36

> <PUBCHEM_CACTVS_SUBSKEYS>
AAADcfB8PCIAAAAAAAAAAAAAAAAAAAAAAAAAAAAAAAAAAAAAAAAAGgAACCAACBSggAICCAAABRCIQCDSCIAAAAAgAAAICAEAAAgBABIAAQACAAAFgAAKAAOIyKCAAAAAAAAAAAAAAAAAAAAAAAAAAAAAAA==

> <PUBCHEM_IUPAC_OPENEYE_NAME>
sodium;[(2R)-3-hexadecanoyloxy-2-[(8Z,11Z)-octadeca-8,11-dienoyl]oxy-propyl] hydrogen phosphate

> <PUBCHEM_IUPAC_CAS_NAME>
sodium;[(2R)-3-(1-oxohexadecoxy)-2-[(8Z,11Z)-1-oxooctadeca-8,11-dienoxy]propyl] hydrogen phosphate

> <PUBCHEM_IUPAC_NAME_MARKUP>
sodium;[(2<I>R</I>)-3-hexadecanoyloxy-2-[(8<I>Z</I>,11<I>Z</I>)-octadeca-8,11-dienoyl]oxypropyl] hydrogen phosphate

> <PUBCHEM_IUPAC_NAME>
sodium;[(2R)-3-hexadecanoyloxy-2-[(8Z,11Z)-octadeca-8,11-dienoyl]oxypropyl] hydrogen phosphate

> <PUBCHEM_IUPAC_SYSTEMATIC_NAME>
sodium;[(2R)-3-hexadecanoyloxy-2-[(8Z,11Z)-octadeca-8,11-dienoyl]oxy-propyl] hydrogen phosphate

> <PUBCHEM_IUPAC_TRADITIONAL_NAME>
sodium;[(2R)-3-hexadecanoyloxy-2-[(8Z,11Z)-octadeca-8,11-dienoyl]oxy-propyl] hydrogen phosphate

> <PUBCHEM_IUPAC_INCHI>
InChI=1S/C37H69O8P.Na/c1-3-5-7-9-11-13-15-17-18-20-22-24-26-28-30-32-37(39)45-35(34-44-46(40,41)42)33-43-36(38)31-29-27-25-23-21-19-16-14-12-10-8-6-4-2;/h13,15,18,20,35H,3-12,14,16-17,19,21-34H2,1-2H3,(H2,40,41,42);/q;+1/p-1/b15-13-,20-18-;/t35-;/m1./s1

> <PUBCHEM_IUPAC_INCHIKEY>
TVQOCLIBLWXANT-YDUFQYGRSA-M

> <PUBCHEM_EXACT_MASS>
694.45495

> <PUBCHEM_MOLECULAR_FORMULA>
C37H68NaO8P

> <PUBCHEM_MOLECULAR_WEIGHT>
694.9

> <PUBCHEM_OPENEYE_CAN_SMILES>
CCCCCCCCCCCCCCCC(=O)OCC(COP(=O)(O)[O-])OC(=O)CCCCCCC=CCC=CCCCCCC.[Na+]

> <PUBCHEM_OPENEYE_ISO_SMILES>
CCCCCCCCCCCCCCCC(=O)OC[C@H](COP(=O)(O)[O-])OC(=O)CCCCCC/C=C\C/C=C\CCCCCC.[Na+]

> <PUBCHEM_CACTVS_TPSA>
122

> <PUBCHEM_MONOISOTOPIC_WEIGHT>
694.45495

> <PUBCHEM_TOTAL_CHARGE>
0

> <PUBCHEM_HEAVY_ATOM_COUNT>
47

> <PUBCHEM_ATOM_DEF_STEREO_COUNT>
1

> <PUBCHEM_ATOM_UDEF_STEREO_COUNT>
0

> <PUBCHEM_BOND_DEF_STEREO_COUNT>
2

> <PUBCHEM_BOND_UDEF_STEREO_COUNT>
0

> <PUBCHEM_ISOTOPIC_ATOM_COUNT>
0

> <PUBCHEM_COMPONENT_COUNT>
2

> <PUBCHEM_CACTVS_TAUTO_COUNT>
-1

> <PUBCHEM_NONSTANDARDBOND>
2  8  7

> <PUBCHEM_COORDINATE_TYPE>
1
5
255

> <PUBCHEM_BONDANNOTATIONS>
32  4  5

$$$$
23677501
  -OEChem-04052116402D

 22 22  0     0  0  0  0  0  0999 V2000
    7.2566    2.2561    0.0000 Na  0  3  0  0  0  0  0  0  0  0  0  0
    6.2781    2.0499    0.0000 O   0  5  0  0  0  0  0  0  0  0  0  0
    6.6353    0.3551    0.0000 O   0  0  0  0  0  0  0  0  0  0  0  0
    4.6783   -1.6668    0.0000 N   0  0  0  0  0  0  0  0  0  0  0  0
    3.7320   -0.3621    0.0000 C   0  0  0  0  0  0  0  0  0  0  0  0
    4.6783   -0.0573    0.0000 C   0  0  0  0  0  0  0  0  0  0  0  0
    3.7320   -1.3621    0.0000 C   0  0  0  0  0  0  0  0  0  0  0  0
    4.9889    0.8932    0.0000 C   0  0  0  0  0  0  0  0  0  0  0  0
    5.2619   -0.8621    0.0000 C   0  0  0  0  0  0  0  0  0  0  0  0
    2.8660    0.1379    0.0000 C   0  0  0  0  0  0  0  0  0  0  0  0
    2.8660   -1.8621    0.0000 C   0  0  0  0  0  0  0  0  0  0  0  0
    2.0000   -0.3621    0.0000 C   0  0  0  0  0  0  0  0  0  0  0  0
    2.0000   -1.3621    0.0000 C   0  0  0  0  0  0  0  0  0  0  0  0
    5.9674    1.0994    0.0000 C   0  0  0  0  0  0  0  0  0  0  0  0
    4.9684    1.5128    0.0000 H   0  0  0  0  0  0  0  0  0  0  0  0
    4.3751    0.9805    0.0000 H   0  0  0  0  0  0  0  0  0  0  0  0
    5.8819   -0.8621    0.0000 H   0  0  0  0  0  0  0  0  0  0  0  0
    4.8709   -2.2561    0.0000 H   0  0  0  0  0  0  0  0  0  0  0  0
    2.8660    0.7579    0.0000 H   0  0  0  0  0  0  0  0  0  0  0  0
    2.8660   -2.4821    0.0000 H   0  0  0  0  0  0  0  0  0  0  0  0
    1.4631   -0.0521    0.0000 H   0  0  0  0  0  0  0  0  0  0  0  0
    1.4631   -1.6721    0.0000 H   0  0  0  0  0  0  0  0  0  0  0  0
  2 14  1  0  0  0  0
  3 14  2  0  0  0  0
  4  7  1  0  0  0  0
  4  9  1  0  0  0  0
  4 18  1  0  0  0  0
  5  6  1  0  0  0  0
  5  7  1  0  0  0  0
  5 10  2  0  0  0  0
  6  8  1  0  0  0  0
  6  9  2  0  0  0  0
  7 11  2  0  0  0  0
  8 14  1  0  0  0  0
  8 15  1  0  0  0  0
  8 16  1  0  0  0  0
  9 17  1  0  0  0  0
 10 12  1  0  0  0  0
 10 19  1  0  0  0  0
 11 13  1  0  0  0  0
 11 20  1  0  0  0  0
 12 13  2  0  0  0  0
 12 21  1  0  0  0  0
 13 22  1  0  0  0  0
M  CHG  2   1   1   2  -1
M  END
> <PUBCHEM_COMPOUND_CID>
23677501

> <PUBCHEM_COMPOUND_CANONICALIZED>
1

> <PUBCHEM_CACTVS_COMPLEXITY>
210

> <PUBCHEM_CACTVS_HBOND_ACCEPTOR>
2

> <PUBCHEM_CACTVS_HBOND_DONOR>
1

> <PUBCHEM_CACTVS_ROTATABLE_BOND>
2

> <PUBCHEM_CACTVS_SUBSKEYS>
AAADccByMCAAAAAAAAAAAAAAAAAAAWAAAAAwAAAAAAAAAFgB8AAAHgAQAAAADAjBngQ8yPLJkACoAzT3TACCgCAxAiAI2aE4ZJgIIPLAlZGEIAhk0AHIyAe82eOegAAAAAACAAAAAAAAAAQAAAAAAAAAAA==

> <PUBCHEM_IUPAC_OPENEYE_NAME>
sodium;2-(1H-indol-3-yl)acetate

> <PUBCHEM_IUPAC_CAS_NAME>
sodium;2-(1H-indol-3-yl)acetate

> <PUBCHEM_IUPAC_NAME_MARKUP>
sodium;2-(1<I>H</I>-indol-3-yl)acetate

> <PUBCHEM_IUPAC_NAME>
sodium;2-(1H-indol-3-yl)acetate

> <PUBCHEM_IUPAC_SYSTEMATIC_NAME>
sodium;2-(1H-indol-3-yl)ethanoate

> <PUBCHEM_IUPAC_TRADITIONAL_NAME>
sodium;2-(1H-indol-3-yl)acetate

> <PUBCHEM_IUPAC_INCHI>
InChI=1S/C10H9NO2.Na/c12-10(13)5-7-6-11-9-4-2-1-3-8(7)9;/h1-4,6,11H,5H2,(H,12,13);/q;+1/p-1

> <PUBCHEM_IUPAC_INCHIKEY>
YGSPWCVTJRFZEL-UHFFFAOYSA-M

> <PUBCHEM_EXACT_MASS>
197.045273

> <PUBCHEM_MOLECULAR_FORMULA>
C10H8NNaO2

> <PUBCHEM_MOLECULAR_WEIGHT>
197.17

> <PUBCHEM_OPENEYE_CAN_SMILES>
C1=CC=C2C(=C1)C(=CN2)CC(=O)[O-].[Na+]

> <PUBCHEM_OPENEYE_ISO_SMILES>
C1=CC=C2C(=C1)C(=CN2)CC(=O)[O-].[Na+]

> <PUBCHEM_CACTVS_TPSA>
55.9

> <PUBCHEM_MONOISOTOPIC_WEIGHT>
197.045273

> <PUBCHEM_TOTAL_CHARGE>
0

> <PUBCHEM_HEAVY_ATOM_COUNT>
14

> <PUBCHEM_ATOM_DEF_STEREO_COUNT>
0

> <PUBCHEM_ATOM_UDEF_STEREO_COUNT>
0

> <PUBCHEM_BOND_DEF_STEREO_COUNT>
0

> <PUBCHEM_BOND_UDEF_STEREO_COUNT>
0

> <PUBCHEM_ISOTOPIC_ATOM_COUNT>
0

> <PUBCHEM_COMPONENT_COUNT>
2

> <PUBCHEM_CACTVS_TAUTO_COUNT>
-1

> <PUBCHEM_NONSTANDARDBOND>
1  2  7

> <PUBCHEM_COORDINATE_TYPE>
1
5
255

> <PUBCHEM_BONDANNOTATIONS>
10  12  8
11  13  8
12  13  8
4  7  8
4  9  8
5  10  8
5  6  8
5  7  8
6  9  8
7  11  8

$$$$
23672064
  -OEChem-04052116402D

  8  6  0     0  0  0  0  0  0999 V2000
    3.4030   -0.2685    0.0000 P   0  0  0  0  0  0  0  0  0  0  0  0
    5.1350   -0.2685    0.0000 Na  0  3  0  0  0  0  0  0  0  0  0  0
    4.2690    0.2315    0.0000 O   0  5  0  0  0  0  0  0  0  0  0  0
    2.5369   -0.7685    0.0000 O   0  0  0  0  0  0  0  0  0  0  0  0
    2.9030    0.5976    0.0000 O   0  0  0  0  0  0  0  0  0  0  0  0
    3.9030   -1.1345    0.0000 O   0  0  0  0  0  0  0  0  0  0  0  0
    2.0000   -0.4585    0.0000 H   0  0  0  0  0  0  0  0  0  0  0  0
    3.2130    1.1345    0.0000 H   0  0  0  0  0  0  0  0  0  0  0  0
  1  3  1  0  0  0  0
  1  4  1  0  0  0  0
  1  5  1  0  0  0  0
  1  6  2  0  0  0  0
  4  7  1  0  0  0  0
  5  8  1  0  0  0  0
M  CHG  2   2   1   3  -1
M  END
> <PUBCHEM_COMPOUND_CID>
23672064

> <PUBCHEM_COMPOUND_CANONICALIZED>
1

> <PUBCHEM_CACTVS_COMPLEXITY>
61.9

> <PUBCHEM_CACTVS_HBOND_ACCEPTOR>
4

> <PUBCHEM_CACTVS_HBOND_DONOR>
2

> <PUBCHEM_CACTVS_ROTATABLE_BOND>
0

> <PUBCHEM_CACTVS_SUBSKEYS>
AAADcQAAOCIAAAAAAAAAAAAAAAAAAAAAAAAAAAAAAAAAAAAAAAAAAAAACCAAAAAAAAAAAAAAABAAQAAAAIAAAAAAAAAAAAAAAAAAAAAAAAAAAAAAAAAAAAAAAAAAAAAAAAAAAAAAAAAAAAAAAAAAAAAAAA==

> <PUBCHEM_IUPAC_OPENEYE_NAME>
sodium;dihydrogen phosphate

> <PUBCHEM_IUPAC_CAS_NAME>
sodium;dihydrogen phosphate

> <PUBCHEM_IUPAC_NAME_MARKUP>
sodium;dihydrogen phosphate

> <PUBCHEM_IUPAC_NAME>
sodium;dihydrogen phosphate

> <PUBCHEM_IUPAC_SYSTEMATIC_NAME>
sodium;dihydrogen phosphate

> <PUBCHEM_IUPAC_TRADITIONAL_NAME>
sodium;dihydrogen phosphate

> <PUBCHEM_IUPAC_INCHI>
InChI=1S/Na.H3O4P/c;1-5(2,3)4/h;(H3,1,2,3,4)/q+1;/p-1

> <PUBCHEM_IUPAC_INCHIKEY>
AJPJDKMHJJGVTQ-UHFFFAOYSA-M

> <PUBCHEM_EXACT_MASS>
119.95884

> <PUBCHEM_MOLECULAR_FORMULA>
H2NaO4P

> <PUBCHEM_MOLECULAR_WEIGHT>
119.977

> <PUBCHEM_OPENEYE_CAN_SMILES>
OP(=O)(O)[O-].[Na+]

> <PUBCHEM_OPENEYE_ISO_SMILES>
OP(=O)(O)[O-].[Na+]

> <PUBCHEM_CACTVS_TPSA>
80.6

> <PUBCHEM_MONOISOTOPIC_WEIGHT>
119.95884

> <PUBCHEM_TOTAL_CHARGE>
0

> <PUBCHEM_HEAVY_ATOM_COUNT>
6

> <PUBCHEM_ATOM_DEF_STEREO_COUNT>
0

> <PUBCHEM_ATOM_UDEF_STEREO_COUNT>
0

> <PUBCHEM_BOND_DEF_STEREO_COUNT>
0

> <PUBCHEM_BOND_UDEF_STEREO_COUNT>
0

> <PUBCHEM_ISOTOPIC_ATOM_COUNT>
0

> <PUBCHEM_COMPONENT_COUNT>
2

> <PUBCHEM_CACTVS_TAUTO_COUNT>
-1

> <PUBCHEM_NONSTANDARDBOND>
2  3  7

> <PUBCHEM_COORDINATE_TYPE>
1
5
255

$$$$
16219714
  -OEChem-04052116402D

 25 25  0     0  0  0  0  0  0999 V2000
    6.9616    2.4788    0.0000 K   0  4  0  0  0  0  0  0  0  0  0  0
    0.8660    0.3100    0.0000 O   0  0  0  0  0  0  0  0  0  0  0  0
    0.0000    1.8100    0.0000 O   0  0  0  0  0  0  0  0  0  0  0  0
    2.5981    3.3100    0.0000 C   0  0  0  0  0  0  0  0  0  0  0  0
    1.7320    2.8100    0.0000 C   0  0  0  0  0  0  0  0  0  0  0  0
    2.5981    4.3100    0.0000 C   0  0  0  0  0  0  0  0  0  0  0  0
    1.7320    1.8100    0.0000 C   0  0  0  0  0  0  0  0  0  0  0  0
    0.8660    3.3100    0.0000 C   0  0  0  0  0  0  0  0  0  0  0  0
    3.4920    2.7753    0.0000 C   0  0  0  0  0  0  0  0  0  0  0  0
    1.7320    4.8100    0.0000 C   0  0  0  0  0  0  0  0  0  0  0  0
    3.4920    4.8447    0.0000 C   0  0  0  0  0  0  0  0  0  0  0  0
    0.8660    4.3100    0.0000 C   0  0  0  0  0  0  0  0  0  0  0  0
    4.3981    3.2892    0.0000 C   0  0  0  0  0  0  0  0  0  0  0  0
    4.3981    4.3308    0.0000 C   0  0  0  0  0  0  0  0  0  0  0  0
    0.8660    1.3100    0.0000 C   0  0  0  0  0  0  0  0  0  0  0  0
    1.9441    1.2274    0.0000 H   0  0  0  0  0  0  0  0  0  0  0  0
    2.3426    1.9177    0.0000 H   0  0  0  0  0  0  0  0  0  0  0  0
    0.3291    3.0000    0.0000 H   0  0  0  0  0  0  0  0  0  0  0  0
    3.4848    2.1554    0.0000 H   0  0  0  0  0  0  0  0  0  0  0  0
    1.7320    5.4300    0.0000 H   0  0  0  0  0  0  0  0  0  0  0  0
    3.4848    5.4646    0.0000 H   0  0  0  0  0  0  0  0  0  0  0  0
    0.3291    4.6200    0.0000 H   0  0  0  0  0  0  0  0  0  0  0  0
    4.9338    2.9771    0.0000 H   0  0  0  0  0  0  0  0  0  0  0  0
    4.9338    4.6429    0.0000 H   0  0  0  0  0  0  0  0  0  0  0  0
    0.3291    0.0000    0.0000 H   0  0  0  0  0  0  0  0  0  0  0  0
  2 15  1  0  0  0  0
  2 25  1  0  0  0  0
  3 15  2  0  0  0  0
  4  5  1  0  0  0  0
  4  6  1  0  0  0  0
  4  9  2  0  0  0  0
  5  7  1  0  0  0  0
  5  8  2  0  0  0  0
  6 10  1  0  0  0  0
  6 11  2  0  0  0  0
  7 15  1  0  0  0  0
  7 16  1  0  0  0  0
  7 17  1  0  0  0  0
  8 12  1  0  0  0  0
  8 18  1  0  0  0  0
  9 13  1  0  0  0  0
  9 19  1  0  0  0  0
 10 12  2  0  0  0  0
 10 20  1  0  0  0  0
 11 14  1  0  0  0  0
 11 21  1  0  0  0  0
 12 22  1  0  0  0  0
 13 14  2  0  0  0  0
 13 23  1  0  0  0  0
 14 24  1  0  0  0  0
M  RAD  1   1   2
M  END
> <PUBCHEM_COMPOUND_CID>
16219714

> <PUBCHEM_COMPOUND_CANONICALIZED>
1

> <PUBCHEM_CACTVS_COMPLEXITY>
212

> <PUBCHEM_CACTVS_HBOND_ACCEPTOR>
2

> <PUBCHEM_CACTVS_HBOND_DONOR>
1

> <PUBCHEM_CACTVS_ROTATABLE_BOND>
2

> <PUBCHEM_CACTVS_SUBSKEYS>
AAADccBwMAAAQAAAAAAAAAAAAAAAAAAAAAAwYAAAAAAAAADBUAAAGgAACAAADACAmAAwCMAAAgCIAiDSCAACAAAgAAAIiAEAAIgIIDKAFRCAYAAkwAEIiAeIyPCOgAACAAAQAAAAAAQAACAAAAAAAAAAAA==

> <PUBCHEM_IUPAC_INCHI>
InChI=1S/C12H10O2.K/c13-12(14)8-10-6-3-5-9-4-1-2-7-11(9)10;/h1-7H,8H2,(H,13,14);

> <PUBCHEM_IUPAC_INCHIKEY>
ADHKNBCKUUVGIL-UHFFFAOYSA-N

> <PUBCHEM_EXACT_MASS>
225.031786

> <PUBCHEM_MOLECULAR_FORMULA>
C12H10KO2

> <PUBCHEM_MOLECULAR_WEIGHT>
225.3

> <PUBCHEM_OPENEYE_CAN_SMILES>
C1=CC=C2C(=C1)C=CC=C2CC(=O)O.[K]

> <PUBCHEM_OPENEYE_ISO_SMILES>
C1=CC=C2C(=C1)C=CC=C2CC(=O)O.[K]

> <PUBCHEM_CACTVS_TPSA>
37.3

> <PUBCHEM_MONOISOTOPIC_WEIGHT>
225.031786

> <PUBCHEM_TOTAL_CHARGE>
0

> <PUBCHEM_HEAVY_ATOM_COUNT>
15

> <PUBCHEM_ATOM_DEF_STEREO_COUNT>
0

> <PUBCHEM_ATOM_UDEF_STEREO_COUNT>
0

> <PUBCHEM_BOND_DEF_STEREO_COUNT>
0

> <PUBCHEM_BOND_UDEF_STEREO_COUNT>
0

> <PUBCHEM_ISOTOPIC_ATOM_COUNT>
0

> <PUBCHEM_COMPONENT_COUNT>
2

> <PUBCHEM_CACTVS_TAUTO_COUNT>
-1

> <PUBCHEM_COORDINATE_TYPE>
1
5
255

> <PUBCHEM_BONDANNOTATIONS>
10  12  8
11  14  8
13  14  8
4  5  8
4  6  8
4  9  8
5  8  8
6  10  8
6  11  8
8  12  8
9  13  8

$$$$
16219528
  -OEChem-04052116402D

 29 29  0     0  0  0  0  0  0999 V2000
    3.1058    0.0000    0.0000 K   0  4  0  0  0  0  0  0  0  0  0  0
    6.1042    8.1850    0.0000 O   0  0  0  0  0  0  0  0  0  0  0  0
    6.4614    6.4902    0.0000 O   0  0  0  0  0  0  0  0  0  0  0  0
    3.2152    3.3116    0.0000 N   0  0  0  0  0  0  0  0  0  0  0  0
    3.5259    5.8716    0.0000 C   0  0  0  0  0  0  0  0  0  0  0  0
    3.2152    4.9210    0.0000 C   0  0  0  0  0  0  0  0  0  0  0  0
    2.2690    4.6163    0.0000 C   0  0  0  0  0  0  0  0  0  0  0  0
    4.5044    6.0778    0.0000 C   0  0  0  0  0  0  0  0  0  0  0  0
    2.2690    3.6163    0.0000 C   0  0  0  0  0  0  0  0  0  0  0  0
    3.7988    4.1163    0.0000 C   0  0  0  0  0  0  0  0  0  0  0  0
    4.8150    7.0283    0.0000 C   0  0  0  0  0  0  0  0  0  0  0  0
    1.4030    5.1163    0.0000 C   0  0  0  0  0  0  0  0  0  0  0  0
    1.4030    3.1163    0.0000 C   0  0  0  0  0  0  0  0  0  0  0  0
    0.5369    4.6163    0.0000 C   0  0  0  0  0  0  0  0  0  0  0  0
    0.5369    3.6163    0.0000 C   0  0  0  0  0  0  0  0  0  0  0  0
    5.7935    7.2345    0.0000 C   0  0  0  0  0  0  0  0  0  0  0  0
    3.5053    6.4912    0.0000 H   0  0  0  0  0  0  0  0  0  0  0  0
    2.9120    5.9589    0.0000 H   0  0  0  0  0  0  0  0  0  0  0  0
    4.5249    5.4581    0.0000 H   0  0  0  0  0  0  0  0  0  0  0  0
    5.1182    5.9904    0.0000 H   0  0  0  0  0  0  0  0  0  0  0  0
    4.4188    4.1163    0.0000 H   0  0  0  0  0  0  0  0  0  0  0  0
    4.7945    7.6480    0.0000 H   0  0  0  0  0  0  0  0  0  0  0  0
    4.2012    7.1156    0.0000 H   0  0  0  0  0  0  0  0  0  0  0  0
    3.4078    2.7222    0.0000 H   0  0  0  0  0  0  0  0  0  0  0  0
    1.4030    5.7363    0.0000 H   0  0  0  0  0  0  0  0  0  0  0  0
    1.4030    2.4963    0.0000 H   0  0  0  0  0  0  0  0  0  0  0  0
    0.0000    4.9263    0.0000 H   0  0  0  0  0  0  0  0  0  0  0  0
    0.0000    3.3063    0.0000 H   0  0  0  0  0  0  0  0  0  0  0  0
    6.7109    8.3129    0.0000 H   0  0  0  0  0  0  0  0  0  0  0  0
  2 16  1  0  0  0  0
  2 29  1  0  0  0  0
  3 16  2  0  0  0  0
  4  9  1  0  0  0  0
  4 10  1  0  0  0  0
  4 24  1  0  0  0  0
  5  6  1  0  0  0  0
  5  8  1  0  0  0  0
  5 17  1  0  0  0  0
  5 18  1  0  0  0  0
  6  7  1  0  0  0  0
  6 10  2  0  0  0  0
  7  9  1  0  0  0  0
  7 12  2  0  0  0  0
  8 11  1  0  0  0  0
  8 19  1  0  0  0  0
  8 20  1  0  0  0  0
  9 13  2  0  0  0  0
 10 21  1  0  0  0  0
 11 16  1  0  0  0  0
 11 22  1  0  0  0  0
 11 23  1  0  0  0  0
 12 14  1  0  0  0  0
 12 25  1  0  0  0  0
 13 15  1  0  0  0  0
 13 26  1  0  0  0  0
 14 15  2  0  0  0  0
 14 27  1  0  0  0  0
 15 28  1  0  0  0  0
M  RAD  1   1   2
M  END
> <PUBCHEM_COMPOUND_CID>
16219528

> <PUBCHEM_COMPOUND_CANONICALIZED>
1

> <PUBCHEM_CACTVS_COMPLEXITY>
230

> <PUBCHEM_CACTVS_HBOND_ACCEPTOR>
2

> <PUBCHEM_CACTVS_HBOND_DONOR>
2

> <PUBCHEM_CACTVS_ROTATABLE_BOND>
4

> <PUBCHEM_CACTVS_SUBSKEYS>
AAADccByMAAAQAAAAAAAAAAAAAAAAWAAAAAwAAAAAAAAAFgB8AAAHgAQCAAADAjBngQ8yPLJkgCoAzT3TACCgCAxAiAI2aE4ZJgIIPLAkZGEYAhkkADIyAeYyPCOgAAAAAACAAAAAAAAAAQAAAAAAAAAAA==

> <PUBCHEM_IUPAC_INCHI>
InChI=1S/C12H13NO2.K/c14-12(15)7-3-4-9-8-13-11-6-2-1-5-10(9)11;/h1-2,5-6,8,13H,3-4,7H2,(H,14,15);

> <PUBCHEM_IUPAC_INCHIKEY>
XREFHSVFKSWTNS-UHFFFAOYSA-N

> <PUBCHEM_EXACT_MASS>
242.058335

> <PUBCHEM_MOLECULAR_FORMULA>
C12H13KNO2

> <PUBCHEM_MOLECULAR_WEIGHT>
242.33

> <PUBCHEM_OPENEYE_CAN_SMILES>
C1=CC=C2C(=C1)C(=CN2)CCCC(=O)O.[K]

> <PUBCHEM_OPENEYE_ISO_SMILES>
C1=CC=C2C(=C1)C(=CN2)CCCC(=O)O.[K]

> <PUBCHEM_CACTVS_TPSA>
53.1

> <PUBCHEM_MONOISOTOPIC_WEIGHT>
242.058335

> <PUBCHEM_TOTAL_CHARGE>
0

> <PUBCHEM_HEAVY_ATOM_COUNT>
16

> <PUBCHEM_ATOM_DEF_STEREO_COUNT>
0

> <PUBCHEM_ATOM_UDEF_STEREO_COUNT>
0

> <PUBCHEM_BOND_DEF_STEREO_COUNT>
0

> <PUBCHEM_BOND_UDEF_STEREO_COUNT>
0

> <PUBCHEM_ISOTOPIC_ATOM_COUNT>
0

> <PUBCHEM_COMPONENT_COUNT>
2

> <PUBCHEM_CACTVS_TAUTO_COUNT>
-1

> <PUBCHEM_COORDINATE_TYPE>
1
5
255

> <PUBCHEM_BONDANNOTATIONS>
12  14  8
13  15  8
14  15  8
4  10  8
4  9  8
6  10  8
6  7  8
7  12  8
7  9  8
9  13  8

$$$$
16219387
  -OEChem-04052116402D

 22 18  0     0  0  0  0  0  0999 V2000
    1.7320    2.1200    0.0000 P   0  0  0  0  0  0  0  0  0  0  0  0
    0.0000    2.1200    0.0000 Na  0  3  0  0  0  0  0  0  0  0  0  0
    1.7320    3.8520    0.0000 Na  0  3  0  0  0  0  0  0  0  0  0  0
    2.5981    2.6200    0.0000 O   0  0  0  0  0  0  0  0  0  0  0  0
    5.1962    2.1200    0.0000 O   0  0  0  0  0  0  0  0  0  0  0  0
    4.3301    0.6200    0.0000 O   0  0  0  0  0  0  0  0  0  0  0  0
    0.8660    1.6200    0.0000 O   0  5  0  0  0  0  0  0  0  0  0  0
    1.2320    2.9860    0.0000 O   0  5  0  0  0  0  0  0  0  0  0  0
    2.2320    1.2540    0.0000 O   0  0  0  0  0  0  0  0  0  0  0  0
    2.8665    5.8520    0.0000 O   0  0  0  0  0  0  0  0  0  0  0  0
    3.4641    2.1200    0.0000 C   0  0  0  0  0  0  0  0  0  0  0  0
    4.3301    2.6200    0.0000 C   0  0  0  0  0  0  0  0  0  0  0  0
    3.4641    1.1200    0.0000 C   0  0  0  0  0  0  0  0  0  0  0  0
    3.4641    2.7400    0.0000 H   0  0  0  0  0  0  0  0  0  0  0  0
    4.7287    3.0950    0.0000 H   0  0  0  0  0  0  0  0  0  0  0  0
    3.9316    3.0950    0.0000 H   0  0  0  0  0  0  0  0  0  0  0  0
    2.8535    1.2277    0.0000 H   0  0  0  0  0  0  0  0  0  0  0  0
    3.2520    0.5374    0.0000 H   0  0  0  0  0  0  0  0  0  0  0  0
    5.7331    2.4300    0.0000 H   0  0  0  0  0  0  0  0  0  0  0  0
    4.3301    0.0000    0.0000 H   0  0  0  0  0  0  0  0  0  0  0  0
    3.4035    6.1620    0.0000 H   0  0  0  0  0  0  0  0  0  0  0  0
    2.3296    6.1620    0.0000 H   0  0  0  0  0  0  0  0  0  0  0  0
  1  4  1  0  0  0  0
  1  7  1  0  0  0  0
  1  8  1  0  0  0  0
  1  9  2  0  0  0  0
  4 11  1  0  0  0  0
  5 12  1  0  0  0  0
  5 19  1  0  0  0  0
  6 13  1  0  0  0  0
  6 20  1  0  0  0  0
 10 21  1  0  0  0  0
 10 22  1  0  0  0  0
 11 12  1  0  0  0  0
 11 13  1  0  0  0  0
 11 14  1  0  0  0  0
 12 15  1  0  0  0  0
 12 16  1  0  0  0  0
 13 17  1  0  0  0  0
 13 18  1  0  0  0  0
M  CHG  4   2   1   3   1   7  -1   8  -1
M  END
> <PUBCHEM_COMPOUND_CID>
16219387

> <PUBCHEM_COMPOUND_CANONICALIZED>
1

> <PUBCHEM_CACTVS_COMPLEXITY>
113

> <PUBCHEM_CACTVS_HBOND_ACCEPTOR>
7

> <PUBCHEM_CACTVS_HBOND_DONOR>
3

> <PUBCHEM_CACTVS_ROTATABLE_BOND>
3

> <PUBCHEM_CACTVS_SUBSKEYS>
AAADccBAODIAAAAAAAAAAAAAAAAAAAAAAAAAAAAAAAAAAAAAAAAAGgAACCAACBSggAIAAAAAAxAAQAAAAIAAAAAAAAAAAAAAAAABEAAAAAAAQAABAAABAAAAAAAAAAAAAAAAAAAAAAAAAAAAAAAAAAAAAA==

> <PUBCHEM_IUPAC_OPENEYE_NAME>
disodium;[2-hydroxy-1-(hydroxymethyl)ethyl] phosphate;hydrate

> <PUBCHEM_IUPAC_CAS_NAME>
disodium;1,3-dihydroxypropan-2-yl phosphate;hydrate

> <PUBCHEM_IUPAC_NAME_MARKUP>
disodium;1,3-dihydroxypropan-2-yl phosphate;hydrate

> <PUBCHEM_IUPAC_NAME>
disodium;1,3-dihydroxypropan-2-yl phosphate;hydrate

> <PUBCHEM_IUPAC_SYSTEMATIC_NAME>
disodium;1,3-bis(oxidanyl)propan-2-yl phosphate;hydrate

> <PUBCHEM_IUPAC_TRADITIONAL_NAME>
disodium;(2-hydroxy-1-methylol-ethyl) phosphate;hydrate

> <PUBCHEM_IUPAC_INCHI>
InChI=1S/C3H9O6P.2Na.H2O/c4-1-3(2-5)9-10(6,7)8;;;/h3-5H,1-2H2,(H2,6,7,8);;;1H2/q;2*+1;/p-2

> <PUBCHEM_IUPAC_INCHIKEY>
ROPZSVKNEIIIDE-UHFFFAOYSA-L

> <PUBCHEM_EXACT_MASS>
233.988128

> <PUBCHEM_MOLECULAR_FORMULA>
C3H9Na2O7P

> <PUBCHEM_MOLECULAR_WEIGHT>
234.05

> <PUBCHEM_OPENEYE_CAN_SMILES>
C(C(CO)OP(=O)([O-])[O-])O.O.[Na+].[Na+]

> <PUBCHEM_OPENEYE_ISO_SMILES>
C(C(CO)OP(=O)([O-])[O-])O.O.[Na+].[Na+]

> <PUBCHEM_CACTVS_TPSA>
114

> <PUBCHEM_MONOISOTOPIC_WEIGHT>
233.988128

> <PUBCHEM_TOTAL_CHARGE>
0

> <PUBCHEM_HEAVY_ATOM_COUNT>
13

> <PUBCHEM_ATOM_DEF_STEREO_COUNT>
0

> <PUBCHEM_ATOM_UDEF_STEREO_COUNT>
0

> <PUBCHEM_BOND_DEF_STEREO_COUNT>
0

> <PUBCHEM_BOND_UDEF_STEREO_COUNT>
0

> <PUBCHEM_ISOTOPIC_ATOM_COUNT>
0

> <PUBCHEM_COMPONENT_COUNT>
4

> <PUBCHEM_CACTVS_TAUTO_COUNT>
-1

> <PUBCHEM_COORDINATE_TYPE>
1
5
255

$$$$
16219384
  -OEChem-04052116402D

 48 51  0     1  0  0  0  0  0999 V2000
    3.4772    0.0000    0.0000 K   0  4  0  0  0  0  0  0  0  0  0  0
    3.3696    5.7188    0.0000 O   0  0  0  0  0  0  0  0  0  0  0  0
    7.1309    3.4067    0.0000 O   0  0  0  0  0  0  0  0  0  0  0  0
    0.4249    4.6182    0.0000 O   0  0  0  0  0  0  0  0  0  0  0  0
    0.9477    6.2754    0.0000 O   0  0  0  0  0  0  0  0  0  0  0  0
    4.4464    6.9472    0.0000 O   0  0  0  0  0  0  0  0  0  0  0  0
    2.7205    6.8017    0.0000 O   0  0  0  0  0  0  0  0  0  0  0  0
    4.4377    4.8305    0.0000 C   0  0  1  0  0  0  0  0  0  0  0  0
    4.1357    3.9633    0.0000 C   0  0  2  0  0  0  0  0  0  0  0  0
    2.9606    4.8589    0.0000 C   0  0  2  0  0  0  0  0  0  0  0  0
    3.2237    3.9849    0.0000 C   0  0  2  0  0  0  0  0  0  0  0  0
    3.7094    5.3797    0.0000 C   0  0  2  0  0  0  0  0  0  0  0  0
    5.1337    3.9981    0.0000 C   0  0  0  0  0  0  0  0  0  0  0  0
    2.0434    5.0749    0.0000 C   0  0  1  0  0  0  0  0  0  0  0  0
    6.1865    3.7355    0.0000 C   0  0  2  0  0  0  0  0  0  0  0  0
    5.3045    5.1352    0.0000 C   0  0  0  0  0  0  0  0  0  0  0  0
    4.6260    3.1868    0.0000 C   0  0  0  0  0  0  0  0  0  0  0  0
    5.5383    3.0855    0.0000 C   0  0  0  0  0  0  0  0  0  0  0  0
    6.0822    4.6481    0.0000 C   0  0  0  0  0  0  0  0  0  0  0  0
    2.5859    3.2703    0.0000 C   0  0  0  0  0  0  0  0  0  0  0  0
    1.3982    4.3888    0.0000 C   0  0  2  0  0  0  0  0  0  0  0  0
    1.7785    5.7188    0.0000 C   0  0  0  0  0  0  0  0  0  0  0  0
    3.6254    6.3762    0.0000 C   0  0  0  0  0  0  0  0  0  0  0  0
    1.0599    5.2561    0.0000 C   0  0  0  0  0  0  0  0  0  0  0  0
    1.6697    3.4861    0.0000 C   0  0  0  0  0  0  0  0  0  0  0  0
    6.8858    5.2433    0.0000 C   0  0  0  0  0  0  0  0  0  0  0  0
    3.7166    3.2238    0.0000 H   0  0  0  0  0  0  0  0  0  0  0  0
    2.5256    5.5891    0.0000 H   0  0  0  0  0  0  0  0  0  0  0  0
    4.2522    5.6794    0.0000 H   0  0  0  0  0  0  0  0  0  0  0  0
    5.1765    3.3796    0.0000 H   0  0  0  0  0  0  0  0  0  0  0  0
    4.5585    3.7665    0.0000 H   0  0  0  0  0  0  0  0  0  0  0  0
    4.9740    5.6597    0.0000 H   0  0  0  0  0  0  0  0  0  0  0  0
    5.7423    5.5742    0.0000 H   0  0  0  0  0  0  0  0  0  0  0  0
    4.6965    2.5708    0.0000 H   0  0  0  0  0  0  0  0  0  0  0  0
    4.0412    2.9809    0.0000 H   0  0  0  0  0  0  0  0  0  0  0  0
    6.0637    2.7564    0.0000 H   0  0  0  0  0  0  0  0  0  0  0  0
    5.3344    2.5000    0.0000 H   0  0  0  0  0  0  0  0  0  0  0  0
    2.7723    2.6790    0.0000 H   0  0  0  0  0  0  0  0  0  0  0  0
    0.9733    3.9372    0.0000 H   0  0  0  0  0  0  0  0  0  0  0  0
    0.9476    4.6464    0.0000 H   0  0  0  0  0  0  0  0  0  0  0  0
    0.4502    5.3684    0.0000 H   0  0  0  0  0  0  0  0  0  0  0  0
    1.1723    5.8658    0.0000 H   0  0  0  0  0  0  0  0  0  0  0  0
    1.2449    3.0345    0.0000 H   0  0  0  0  0  0  0  0  0  0  0  0
    7.2471    2.7977    0.0000 H   0  0  0  0  0  0  0  0  0  0  0  0
    6.8153    5.8593    0.0000 H   0  0  0  0  0  0  0  0  0  0  0  0
    7.4544    4.9963    0.0000 H   0  0  0  0  0  0  0  0  0  0  0  0
    0.0000    4.1667    0.0000 H   0  0  0  0  0  0  0  0  0  0  0  0
    4.3943    7.5650    0.0000 H   0  0  0  0  0  0  0  0  0  0  0  0
 11  2  1  1  0  0  0
  2 22  1  0  0  0  0
 15  3  1  1  0  0  0
  3 44  1  0  0  0  0
 21  4  1  6  0  0  0
  4 47  1  0  0  0  0
  5 22  2  0  0  0  0
  6 23  1  0  0  0  0
  6 48  1  0  0  0  0
  7 23  2  0  0  0  0
  8  9  1  0  0  0  0
  8 12  1  0  0  0  0
  8 13  1  1  0  0  0
  8 16  1  0  0  0  0
  9 11  1  0  0  0  0
  9 17  1  0  0  0  0
  9 27  1  6  0  0  0
 10 11  1  0  0  0  0
 10 12  1  0  0  0  0
 10 14  1  0  0  0  0
 10 28  1  6  0  0  0
 11 20  1  0  0  0  0
 12 23  1  6  0  0  0
 12 29  1  0  0  0  0
 13 15  1  0  0  0  0
 13 30  1  0  0  0  0
 13 31  1  0  0  0  0
 14 21  1  0  0  0  0
 14 22  1  0  0  0  0
 14 24  1  6  0  0  0
 15 18  1  0  0  0  0
 15 19  1  0  0  0  0
 16 19  1  0  0  0  0
 16 32  1  0  0  0  0
 16 33  1  0  0  0  0
 17 18  1  0  0  0  0
 17 34  1  0  0  0  0
 17 35  1  0  0  0  0
 18 36  1  0  0  0  0
 18 37  1  0  0  0  0
 19 26  2  0  0  0  0
 20 25  2  0  0  0  0
 20 38  1  0  0  0  0
 21 25  1  0  0  0  0
 21 39  1  0  0  0  0
 24 40  1  0  0  0  0
 24 41  1  0  0  0  0
 24 42  1  0  0  0  0
 25 43  1  0  0  0  0
 26 45  1  0  0  0  0
 26 46  1  0  0  0  0
M  RAD  1   1   2
M  END
> <PUBCHEM_COMPOUND_CID>
16219384

> <PUBCHEM_COMPOUND_CANONICALIZED>
1

> <PUBCHEM_CACTVS_COMPLEXITY>
772

> <PUBCHEM_CACTVS_HBOND_ACCEPTOR>
6

> <PUBCHEM_CACTVS_HBOND_DONOR>
3

> <PUBCHEM_CACTVS_ROTATABLE_BOND>
1

> <PUBCHEM_CACTVS_SUBSKEYS>
AAADceB4OAAAQAAAAAAAAAAAAAAAAaMEAAAwQAAABggSAGDAAAAAGgAACAAAD1SggAICCAAABgCIAiDSCAAAAAAgAAAICAEAAAgAFBYAIQACUAAFoAAIMAPK7vzPgAAAAAAAAADAAAYAACAAAYAADAAAAA==

> <PUBCHEM_IUPAC_INCHI>
InChI=1S/C19H22O6.K/c1-9-7-17-8-18(9,24)5-3-10(17)19-6-4-11(20)16(2,15(23)25-19)13(19)12(17)14(21)22;/h4,6,10-13,20,24H,1,3,5,7-8H2,2H3,(H,21,22);/t10-,11+,12-,13-,16-,17+,18+,19-;/m1./s1

> <PUBCHEM_IUPAC_INCHIKEY>
ABVAMUBQTNXOFZ-GLDAWBHVSA-N

> <PUBCHEM_EXACT_MASS>
385.105345

> <PUBCHEM_MOLECULAR_FORMULA>
C19H22KO6

> <PUBCHEM_MOLECULAR_WEIGHT>
385.5

> <PUBCHEM_OPENEYE_CAN_SMILES>
CC12C(C=CC3(C1C(C45C3CCC(C4)(C(=C)C5)O)C(=O)O)OC2=O)O.[K]

> <PUBCHEM_OPENEYE_ISO_SMILES>
C[C@@]12[C@H](C=C[C@@]3([C@@H]1[C@@H]([C@]45[C@H]3CC[C@](C4)(C(=C)C5)O)C(=O)O)OC2=O)O.[K]

> <PUBCHEM_CACTVS_TPSA>
104

> <PUBCHEM_MONOISOTOPIC_WEIGHT>
385.105345

> <PUBCHEM_TOTAL_CHARGE>
0

> <PUBCHEM_HEAVY_ATOM_COUNT>
26

> <PUBCHEM_ATOM_DEF_STEREO_COUNT>
8

> <PUBCHEM_ATOM_UDEF_STEREO_COUNT>
0

> <PUBCHEM_BOND_DEF_STEREO_COUNT>
0

> <PUBCHEM_BOND_UDEF_STEREO_COUNT>
0

> <PUBCHEM_ISOTOPIC_ATOM_COUNT>
0

> <PUBCHEM_COMPONENT_COUNT>
2

> <PUBCHEM_CACTVS_TAUTO_COUNT>
-1

> <PUBCHEM_COORDINATE_TYPE>
1
5
255

> <PUBCHEM_BONDANNOTATIONS>
10  28  6
12  23  6
14  24  6
11  2  5
15  3  5
21  4  6
8  13  5
9  27  6

$$$$
16218858
  -OEChem-04052116402D

 88 88  0     1  0  0  0  0  0999 V2000
    1.4030    7.0290    0.0000 S   0  0  0  0  0  0  0  0  0  0  0  0
    8.6921    0.8660    0.0000 S   0  0  0  0  0  0  0  0  0  0  0  0
   10.3094    7.0420    0.0000 O   0  0  0  0  0  0  0  0  0  0  0  0
    8.5773   10.0421    0.0000 O   0  0  0  0  0  0  0  0  0  0  0  0
    8.5773    7.0420    0.0000 O   0  0  0  0  0  0  0  0  0  0  0  0
    8.5773    8.0420    0.0000 O   0  0  0  0  0  0  0  0  0  0  0  0
    8.8781   11.7478    0.0000 O   0  0  0  0  0  0  0  0  0  0  0  0
    6.6077   10.3893    0.0000 O   0  0  0  0  0  0  0  0  0  0  0  0
    7.7249   13.8459    0.0000 O   0  0  0  0  0  0  0  0  0  0  0  0
    8.5773    4.0420    0.0000 O   0  0  0  0  0  0  0  0  0  0  0  0
    6.8453    5.0420    0.0000 O   0  0  0  0  0  0  0  0  0  0  0  0
    5.9792    6.5420    0.0000 O   0  0  0  0  0  0  0  0  0  0  0  0
    2.2690    7.5290    0.0000 O   0  0  0  0  0  0  0  0  0  0  0  0
    0.5369    6.5290    0.0000 O   0  0  0  0  0  0  0  0  0  0  0  0
    9.5582    1.3660    0.0000 O   0  0  0  0  0  0  0  0  0  0  0  0
    7.8261    0.3660    0.0000 O   0  0  0  0  0  0  0  0  0  0  0  0
    0.9030    7.8950    0.0000 O   0  0  0  0  0  0  0  0  0  0  0  0
    1.9030    6.1630    0.0000 O   0  0  0  0  0  0  0  0  0  0  0  0
    8.1921    1.7320    0.0000 O   0  0  0  0  0  0  0  0  0  0  0  0
    9.1921    0.0000    0.0000 O   0  0  0  0  0  0  0  0  0  0  0  0
   12.0414    8.0420    0.0000 N   0  0  0  0  0  0  0  0  0  0  0  0
   10.6514   10.9817    0.0000 N   0  0  0  0  0  0  0  0  0  0  0  0
    5.9237   12.2687    0.0000 N   0  0  0  0  0  0  0  0  0  0  0  0
   10.3094    5.0420    0.0000 N   0  0  0  0  0  0  0  0  0  0  0  0
   10.3094    8.0420    0.0000 C   0  0  1  0  0  0  0  0  0  0  0  0
    9.4433    9.5420    0.0000 C   0  0  2  0  0  0  0  0  0  0  0  0
    9.4433    8.5420    0.0000 C   0  0  1  0  0  0  0  0  0  0  0  0
   11.1754    8.5420    0.0000 C   0  0  2  0  0  0  0  0  0  0  0  0
   10.3094   10.0421    0.0000 C   0  0  1  0  0  0  0  0  0  0  0  0
   11.1754    9.5420    0.0000 C   0  0  0  0  0  0  0  0  0  0  0  0
    9.4433    6.5420    0.0000 C   0  0  1  0  0  0  0  0  0  0  0  0
    8.2353   10.9817    0.0000 C   0  0  2  0  0  0  0  0  0  0  0  0
    6.9085   12.0951    0.0000 C   0  0  1  0  0  0  0  0  0  0  0  0
    7.2505   11.1554    0.0000 C   0  0  2  0  0  0  0  0  0  0  0  0
    9.4433    5.5420    0.0000 C   0  0  1  0  0  0  0  0  0  0  0  0
    7.5512   12.8611    0.0000 C   0  0  1  0  0  0  0  0  0  0  0  0
    8.5773    5.0420    0.0000 C   0  0  2  0  0  0  0  0  0  0  0  0
    7.7113    6.5420    0.0000 C   0  0  1  0  0  0  0  0  0  0  0  0
    7.7113    5.5420    0.0000 C   0  0  1  0  0  0  0  0  0  0  0  0
    8.5361   12.6875    0.0000 C   0  0  0  0  0  0  0  0  0  0  0  0
    6.8453    7.0420    0.0000 C   0  0  3  0  0  0  0  0  0  0  0  0
    6.7852   13.5039    0.0000 C   0  0  0  0  0  0  0  0  0  0  0  0
    6.8453    8.0420    0.0000 C   0  0  0  0  0  0  0  0  0  0  0  0
    5.2809   11.5027    0.0000 C   0  0  0  0  0  0  0  0  0  0  0  0
   10.8463    7.7320    0.0000 H   0  0  0  0  0  0  0  0  0  0  0  0
    8.9064    9.2320    0.0000 H   0  0  0  0  0  0  0  0  0  0  0  0
    9.4433    7.9220    0.0000 H   0  0  0  0  0  0  0  0  0  0  0  0
   11.7123    8.8520    0.0000 H   0  0  0  0  0  0  0  0  0  0  0  0
    9.8344   10.4406    0.0000 H   0  0  0  0  0  0  0  0  0  0  0  0
   11.7860    9.4344    0.0000 H   0  0  0  0  0  0  0  0  0  0  0  0
   11.3874   10.1247    0.0000 H   0  0  0  0  0  0  0  0  0  0  0  0
    9.4433    7.1620    0.0000 H   0  0  0  0  0  0  0  0  0  0  0  0
    7.8368   10.5068    0.0000 H   0  0  0  0  0  0  0  0  0  0  0  0
    6.6964   12.6777    0.0000 H   0  0  0  0  0  0  0  0  0  0  0  0
    6.6399   11.2631    0.0000 H   0  0  0  0  0  0  0  0  0  0  0  0
    9.9803    5.8520    0.0000 H   0  0  0  0  0  0  0  0  0  0  0  0
    8.0404    4.7320    0.0000 H   0  0  0  0  0  0  0  0  0  0  0  0
    7.7113    7.1620    0.0000 H   0  0  0  0  0  0  0  0  0  0  0  0
    7.1744    5.8520    0.0000 H   0  0  0  0  0  0  0  0  0  0  0  0
   12.5784    8.3520    0.0000 H   0  0  0  0  0  0  0  0  0  0  0  0
   12.0414    7.4220    0.0000 H   0  0  0  0  0  0  0  0  0  0  0  0
   11.2620   11.0894    0.0000 H   0  0  0  0  0  0  0  0  0  0  0  0
   10.2529   11.4567    0.0000 H   0  0  0  0  0  0  0  0  0  0  0  0
    9.1466   12.7951    0.0000 H   0  0  0  0  0  0  0  0  0  0  0  0
    8.5361   13.3075    0.0000 H   0  0  0  0  0  0  0  0  0  0  0  0
    8.0404    8.3520    0.0000 H   0  0  0  0  0  0  0  0  0  0  0  0
    6.8453    6.4220    0.0000 H   0  0  0  0  0  0  0  0  0  0  0  0
    7.1837   13.9789    0.0000 H   0  0  0  0  0  0  0  0  0  0  0  0
    6.3103   13.9024    0.0000 H   0  0  0  0  0  0  0  0  0  0  0  0
    6.3867   13.0290    0.0000 H   0  0  0  0  0  0  0  0  0  0  0  0
    5.7116   12.8513    0.0000 H   0  0  0  0  0  0  0  0  0  0  0  0
   10.3094    4.4220    0.0000 H   0  0  0  0  0  0  0  0  0  0  0  0
   10.8463    5.3520    0.0000 H   0  0  0  0  0  0  0  0  0  0  0  0
    6.8198    9.8067    0.0000 H   0  0  0  0  0  0  0  0  0  0  0  0
    8.3075   14.0580    0.0000 H   0  0  0  0  0  0  0  0  0  0  0  0
    8.0404    3.7320    0.0000 H   0  0  0  0  0  0  0  0  0  0  0  0
    6.8453    4.4220    0.0000 H   0  0  0  0  0  0  0  0  0  0  0  0
    7.4653    8.0420    0.0000 H   0  0  0  0  0  0  0  0  0  0  0  0
    6.8453    8.6620    0.0000 H   0  0  0  0  0  0  0  0  0  0  0  0
    6.2253    8.0420    0.0000 H   0  0  0  0  0  0  0  0  0  0  0  0
    4.8059   11.9012    0.0000 H   0  0  0  0  0  0  0  0  0  0  0  0
    4.8823   11.0277    0.0000 H   0  0  0  0  0  0  0  0  0  0  0  0
    5.7558   11.1042    0.0000 H   0  0  0  0  0  0  0  0  0  0  0  0
    5.4423    6.8520    0.0000 H   0  0  0  0  0  0  0  0  0  0  0  0
    2.8059    7.2190    0.0000 H   0  0  0  0  0  0  0  0  0  0  0  0
    0.0000    6.8390    0.0000 H   0  0  0  0  0  0  0  0  0  0  0  0
   10.0951    1.0560    0.0000 H   0  0  0  0  0  0  0  0  0  0  0  0
    7.2892    0.6760    0.0000 H   0  0  0  0  0  0  0  0  0  0  0  0
  1 13  1  0  0  0  0
  1 14  1  0  0  0  0
  1 17  2  0  0  0  0
  1 18  2  0  0  0  0
  2 15  1  0  0  0  0
  2 16  1  0  0  0  0
  2 19  2  0  0  0  0
  2 20  2  0  0  0  0
 25  3  1  1  0  0  0
 31  3  1  6  0  0  0
 26  4  1  1  0  0  0
 32  4  1  1  0  0  0
  5 31  1  0  0  0  0
  5 38  1  0  0  0  0
 27  6  1  6  0  0  0
  6 66  1  0  0  0  0
  7 32  1  0  0  0  0
  7 40  1  0  0  0  0
 34  8  1  1  0  0  0
  8 74  1  0  0  0  0
 36  9  1  6  0  0  0
  9 75  1  0  0  0  0
 37 10  1  1  0  0  0
 10 76  1  0  0  0  0
 39 11  1  6  0  0  0
 11 77  1  0  0  0  0
 12 41  1  0  0  0  0
 12 84  1  0  0  0  0
 13 85  1  0  0  0  0
 14 86  1  0  0  0  0
 15 87  1  0  0  0  0
 16 88  1  0  0  0  0
 28 21  1  6  0  0  0
 21 60  1  0  0  0  0
 21 61  1  0  0  0  0
 29 22  1  6  0  0  0
 22 62  1  0  0  0  0
 22 63  1  0  0  0  0
 33 23  1  6  0  0  0
 23 44  1  0  0  0  0
 23 71  1  0  0  0  0
 35 24  1  6  0  0  0
 24 72  1  0  0  0  0
 24 73  1  0  0  0  0
 25 27  1  0  0  0  0
 25 28  1  0  0  0  0
 25 45  1  0  0  0  0
 26 27  1  0  0  0  0
 26 29  1  0  0  0  0
 26 46  1  0  0  0  0
 27 47  1  0  0  0  0
 28 30  1  0  0  0  0
 28 48  1  0  0  0  0
 29 30  1  0  0  0  0
 29 49  1  0  0  0  0
 30 50  1  0  0  0  0
 30 51  1  0  0  0  0
 31 35  1  0  0  0  0
 31 52  1  0  0  0  0
 32 34  1  0  0  0  0
 32 53  1  0  0  0  0
 33 34  1  0  0  0  0
 33 36  1  0  0  0  0
 33 54  1  0  0  0  0
 34 55  1  0  0  0  0
 35 37  1  0  0  0  0
 35 56  1  0  0  0  0
 36 40  1  0  0  0  0
 36 42  1  0  0  0  0
 37 39  1  0  0  0  0
 37 57  1  0  0  0  0
 38 39  1  0  0  0  0
 38 41  1  1  0  0  0
 38 58  1  0  0  0  0
 39 59  1  0  0  0  0
 40 64  1  0  0  0  0
 40 65  1  0  0  0  0
 41 43  1  0  0  0  0
 41 67  1  0  0  0  0
 42 68  1  0  0  0  0
 42 69  1  0  0  0  0
 42 70  1  0  0  0  0
 43 78  1  0  0  0  0
 43 79  1  0  0  0  0
 43 80  1  0  0  0  0
 44 81  1  0  0  0  0
 44 82  1  0  0  0  0
 44 83  1  0  0  0  0
M  END
> <PUBCHEM_COMPOUND_CID>
16218858

> <PUBCHEM_COMPOUND_CANONICALIZED>
1

> <PUBCHEM_CACTVS_COMPLEXITY>
763

> <PUBCHEM_CACTVS_HBOND_ACCEPTOR>
22

> <PUBCHEM_CACTVS_HBOND_DONOR>
14

> <PUBCHEM_CACTVS_ROTATABLE_BOND>
6

> <PUBCHEM_CACTVS_SUBSKEYS>
AAADcfB7vgBgAAAAAAAAAAAAAAAAAAAAAAA0SIAAAAAAAAAAAAAAHgAQCAAADHzxgAcCCALABoAAAAAAADAAAAAAAAAAAIAIAAATEAIAwAAnQAAHEAAXAAHw8C0MAAAAAAAAAAAAgAAUCACgAAAAAAAAAA==

> <PUBCHEM_IUPAC_OPENEYE_NAME>
(2S,3S,4S,5S)-2-[(1S,2S,3R,4S,6R)-4,6-diamino-3-[(2S,3R,4R,5S,6R)-3-amino-4,5-dihydroxy-6-(1-hydroxyethyl)tetrahydropyran-2-yl]oxy-2-hydroxy-cyclohexoxy]-5-methyl-4-(methylamino)tetrahydropyran-3,5-diol;sulfuric acid

> <PUBCHEM_IUPAC_CAS_NAME>
(2S,3S,4S,5S)-2-[(1S,2S,3R,4S,6R)-4,6-diamino-3-[[(2S,3R,4R,5S,6R)-3-amino-4,5-dihydroxy-6-(1-hydroxyethyl)-2-oxanyl]oxy]-2-hydroxycyclohexyl]oxy-5-methyl-4-(methylamino)oxane-3,5-diol;sulfuric acid

> <PUBCHEM_IUPAC_NAME_MARKUP>
(2<I>S</I>,3<I>S</I>,4<I>S</I>,5<I>S</I>)-2-[(1<I>S</I>,2<I>S</I>,3<I>R</I>,4<I>S</I>,6<I>R</I>)-4,6-diamino-3-[(2<I>S</I>,3<I>R</I>,4<I>R</I>,5<I>S</I>,6<I>R</I>)-3-amino-4,5-dihydroxy-6-(1-hydroxyethyl)oxan-2-yl]oxy-2-hydroxycyclohexyl]oxy-5-methyl-4-(methylamino)oxane-3,5-diol;sulfuric acid

> <PUBCHEM_IUPAC_NAME>
(2S,3S,4S,5S)-2-[(1S,2S,3R,4S,6R)-4,6-diamino-3-[(2S,3R,4R,5S,6R)-3-amino-4,5-dihydroxy-6-(1-hydroxyethyl)oxan-2-yl]oxy-2-hydroxycyclohexyl]oxy-5-methyl-4-(methylamino)oxane-3,5-diol;sulfuric acid

> <PUBCHEM_IUPAC_SYSTEMATIC_NAME>
(2S,3S,4S,5S)-2-[(1S,2S,3R,4S,6R)-4,6-bis(azanyl)-3-[(2S,3R,4R,5S,6R)-3-azanyl-6-(1-hydroxyethyl)-4,5-bis(oxidanyl)oxan-2-yl]oxy-2-oxidanyl-cyclohexyl]oxy-5-methyl-4-(methylamino)oxane-3,5-diol;sulfuric acid

> <PUBCHEM_IUPAC_TRADITIONAL_NAME>
(2S,3S,4S,5S)-2-[(1S,2S,3R,4S,6R)-4,6-diamino-3-[(2S,3R,4R,5S,6R)-3-amino-4,5-dihydroxy-6-(1-hydroxyethyl)tetrahydropyran-2-yl]oxy-2-hydroxy-cyclohexoxy]-5-methyl-4-(methylamino)tetrahydropyran-3,5-diol;sulfuric acid

> <PUBCHEM_IUPAC_INCHI>
InChI=1S/C20H40N4O10.2H2O4S/c1-6(25)14-11(27)10(26)9(23)18(32-14)33-15-7(21)4-8(22)16(12(15)28)34-19-13(29)17(24-3)20(2,30)5-31-19;2*1-5(2,3)4/h6-19,24-30H,4-5,21-23H2,1-3H3;2*(H2,1,2,3,4)/t6?,7-,8+,9+,10+,11-,12-,13-,14+,15+,16-,17-,18+,19-,20+;;/m0../s1

> <PUBCHEM_IUPAC_INCHIKEY>
UHEPSJJJMTWUCP-NKCAIAFTSA-N

> <PUBCHEM_EXACT_MASS>
692.209203

> <PUBCHEM_MOLECULAR_FORMULA>
C20H44N4O18S2

> <PUBCHEM_MOLECULAR_WEIGHT>
692.7

> <PUBCHEM_OPENEYE_CAN_SMILES>
CC(C1C(C(C(C(O1)OC2C(CC(C(C2O)OC3C(C(C(CO3)(C)O)NC)O)N)N)N)O)O)O.OS(=O)(=O)O.OS(=O)(=O)O

> <PUBCHEM_OPENEYE_ISO_SMILES>
CC([C@@H]1[C@H]([C@@H]([C@H]([C@H](O1)O[C@@H]2[C@H](C[C@H]([C@@H]([C@H]2O)O[C@H]3[C@H]([C@@H]([C@](CO3)(C)O)NC)O)N)N)N)O)O)O.OS(=O)(=O)O.OS(=O)(=O)O

> <PUBCHEM_CACTVS_TPSA>
414

> <PUBCHEM_MONOISOTOPIC_WEIGHT>
692.209203

> <PUBCHEM_TOTAL_CHARGE>
0

> <PUBCHEM_HEAVY_ATOM_COUNT>
44

> <PUBCHEM_ATOM_DEF_STEREO_COUNT>
14

> <PUBCHEM_ATOM_UDEF_STEREO_COUNT>
1

> <PUBCHEM_BOND_DEF_STEREO_COUNT>
0

> <PUBCHEM_BOND_UDEF_STEREO_COUNT>
0

> <PUBCHEM_ISOTOPIC_ATOM_COUNT>
0

> <PUBCHEM_COMPONENT_COUNT>
3

> <PUBCHEM_CACTVS_TAUTO_COUNT>
-1

> <PUBCHEM_COORDINATE_TYPE>
1
5
255

> <PUBCHEM_BONDANNOTATIONS>
37  10  5
39  11  6
41  12  3
28  21  6
29  22  6
33  23  6
35  24  6
25  3  5
31  3  6
38  41  5
26  4  5
32  4  5
27  6  6
34  8  5
36  9  6

$$$$
16218557
  -OEChem-04052116402D

  9  7  0     0  0  0  0  0  0999 V2000
    1.1530    0.0000    0.0000 K   0  4  0  0  0  0  0  0  0  0  0  0
    1.4030    3.3660    0.0000 P   0  0  0  0  0  0  0  0  0  0  0  0
    2.2690    3.8660    0.0000 O   0  0  0  0  0  0  0  0  0  0  0  0
    0.5369    2.8660    0.0000 O   0  0  0  0  0  0  0  0  0  0  0  0
    0.9030    4.2320    0.0000 O   0  0  0  0  0  0  0  0  0  0  0  0
    1.9030    2.5000    0.0000 O   0  0  0  0  0  0  0  0  0  0  0  0
    2.8059    3.5560    0.0000 H   0  0  0  0  0  0  0  0  0  0  0  0
    0.0000    3.1760    0.0000 H   0  0  0  0  0  0  0  0  0  0  0  0
    1.2130    4.7690    0.0000 H   0  0  0  0  0  0  0  0  0  0  0  0
  2  3  1  0  0  0  0
  2  4  1  0  0  0  0
  2  5  1  0  0  0  0
  2  6  2  0  0  0  0
  3  7  1  0  0  0  0
  4  8  1  0  0  0  0
  5  9  1  0  0  0  0
M  RAD  1   1   2
M  END
> <PUBCHEM_COMPOUND_CID>
16218557

> <PUBCHEM_COMPOUND_CANONICALIZED>
1

> <PUBCHEM_CACTVS_COMPLEXITY>
49.8

> <PUBCHEM_CACTVS_HBOND_ACCEPTOR>
4

> <PUBCHEM_CACTVS_HBOND_DONOR>
3

> <PUBCHEM_CACTVS_ROTATABLE_BOND>
0

> <PUBCHEM_CACTVS_SUBSKEYS>
AAADcQAAOAIAQAAAAAAAAAAAAAAAAAAAAAAAAAAAAAAAAAAAAAAAAAAACCAAAAAAAAAAAAAAABAAQAAAAIAAAAAAAAAAAAAAAAAAAAAAAAAAAAAAAAAAAAAAAAAAAAAAAAAAAAAAAAAAAAAAAAAAAAAAAA==

> <PUBCHEM_IUPAC_INCHI>
InChI=1S/K.H3O4P/c;1-5(2,3)4/h;(H3,1,2,3,4)

> <PUBCHEM_IUPAC_INCHIKEY>
PJNZPQUBCPKICU-UHFFFAOYSA-N

> <PUBCHEM_EXACT_MASS>
136.940602

> <PUBCHEM_MOLECULAR_FORMULA>
H3KO4P

> <PUBCHEM_MOLECULAR_WEIGHT>
137.094

> <PUBCHEM_OPENEYE_CAN_SMILES>
OP(=O)(O)O.[K]

> <PUBCHEM_OPENEYE_ISO_SMILES>
OP(=O)(O)O.[K]

> <PUBCHEM_CACTVS_TPSA>
77.8

> <PUBCHEM_MONOISOTOPIC_WEIGHT>
136.940602

> <PUBCHEM_TOTAL_CHARGE>
0

> <PUBCHEM_HEAVY_ATOM_COUNT>
6

> <PUBCHEM_ATOM_DEF_STEREO_COUNT>
0

> <PUBCHEM_ATOM_UDEF_STEREO_COUNT>
0

> <PUBCHEM_BOND_DEF_STEREO_COUNT>
0

> <PUBCHEM_BOND_UDEF_STEREO_COUNT>
0

> <PUBCHEM_ISOTOPIC_ATOM_COUNT>
0

> <PUBCHEM_COMPONENT_COUNT>
2

> <PUBCHEM_CACTVS_TAUTO_COUNT>
-1

> <PUBCHEM_COORDINATE_TYPE>
1
5
255

$$$$
16212801
  -OEChem-04052116402D

181186  0     1  0  0  0  0  0999 V2000
    9.5407    4.6907    0.0000 Co  0  1  0  0  0  0  0  0  0  0  0  0
    5.7014   -4.1235    0.0000 P   0  0  3  0  0  0  0  0  0  0  0  0
   12.7119    2.7558    0.0000 O   0  0  0  0  0  0  0  0  0  0  0  0
    8.6916    0.3736    0.0000 O   0  0  0  0  0  0  0  0  0  0  0  0
   12.8864    8.9237    0.0000 O   0  0  0  0  0  0  0  0  0  0  0  0
    8.8330   -0.7779    0.0000 O   0  0  0  0  0  0  0  0  0  0  0  0
   11.1780    8.9829    0.0000 O   0  0  0  0  0  0  0  0  0  0  0  0
    6.7087   10.3733    0.0000 O   0  0  0  0  0  0  0  0  0  0  0  0
    3.6618    2.7616    0.0000 O   0  0  0  0  0  0  0  0  0  0  0  0
    6.5104   -3.5357    0.0000 O   0  0  0  0  0  0  0  0  0  0  0  0
    4.8924   -4.7113    0.0000 O   0  0  0  0  0  0  0  0  0  0  0  0
    6.2892   -4.9325    0.0000 O   0  5  0  0  0  0  0  0  0  0  0  0
    5.1136   -3.3145    0.0000 O   0  0  0  0  0  0  0  0  0  0  0  0
    4.6605   -7.2885    0.0000 O   0  0  0  0  0  0  0  0  0  0  0  0
    6.7765   -5.7991    0.0000 O   0  0  0  0  0  0  0  0  0  0  0  0
    2.6064   -6.9101    0.0000 O   0  0  0  0  0  0  0  0  0  0  0  0
   10.4680    5.0651    0.0000 N   0  5  0  0  0  0  0  0  0  0  0  0
    9.0066    3.7324    0.0000 N   0  0  0  0  0  0  0  0  0  0  0  0
    8.9740    6.3979    0.0000 N   0  0  0  0  0  0  0  0  0  0  0  0
   14.3182    3.4039    0.0000 N   0  0  0  0  0  0  0  0  0  0  0  0
    7.5434    5.0651    0.0000 N   0  0  0  0  0  0  0  0  0  0  0  0
   10.2782   -0.3211    0.0000 N   0  0  0  0  0  0  0  0  0  0  0  0
    7.1104   -0.9589    0.0000 N   0  0  0  0  0  0  0  0  0  0  0  0
   14.1015    7.6894    0.0000 N   0  0  0  0  0  0  0  0  0  0  0  0
    7.9648    5.9221    0.0000 N   0  0  0  0  0  0  0  0  0  0  0  0
   10.2897   10.4698    0.0000 N   0  0  0  0  0  0  0  0  0  0  0  0
    8.1037   11.3999    0.0000 N   0  0  0  0  0  0  0  0  0  0  0  0
    2.6131    4.1400    0.0000 N   0  0  0  0  0  0  0  0  0  0  0  0
    6.3241   -7.9271    0.0000 N   0  0  0  0  0  0  0  0  0  0  0  0
    7.7193   -8.7294    0.0000 N   0  0  0  0  0  0  0  0  0  0  0  0
   11.0529    4.3499    0.0000 C   0  0  2  0  0  0  0  0  0  0  0  0
   11.9636    4.6106    0.0000 C   0  0  2  0  0  0  0  0  0  0  0  0
    9.7869    3.1474    0.0000 C   0  0  1  0  0  0  0  0  0  0  0  0
   11.9636    5.5848    0.0000 C   0  0  1  0  0  0  0  0  0  0  0  0
    9.4937    2.2057    0.0000 C   0  0  1  0  0  0  0  0  0  0  0  0
    8.5194    2.2057    0.0000 C   0  0  2  0  0  0  0  0  0  0  0  0
   11.0203    5.8455    0.0000 C   0  0  0  0  0  0  0  0  0  0  0  0
   12.9538    4.4709    0.0000 C   0  0  0  0  0  0  0  0  0  0  0  0
   11.5491    3.4817    0.0000 C   0  0  0  0  0  0  0  0  0  0  0  0
   12.1368    3.6257    0.0000 C   0  0  0  0  0  0  0  0  0  0  0  0
    8.2261    3.1148    0.0000 C   0  0  0  0  0  0  0  0  0  0  0  0
   12.6763    6.2863    0.0000 C   0  0  0  0  0  0  0  0  0  0  0  0
   10.0865    1.4003    0.0000 C   0  0  0  0  0  0  0  0  0  0  0  0
    8.6239    1.2112    0.0000 C   0  0  0  0  0  0  0  0  0  0  0  0
    7.6059    1.7990    0.0000 C   0  0  0  0  0  0  0  0  0  0  0  0
   10.7287    6.7546    0.0000 C   0  0  0  0  0  0  0  0  0  0  0  0
    7.2844    3.4081    0.0000 C   0  0  0  0  0  0  0  0  0  0  0  0
   12.4250    7.2543    0.0000 C   0  0  0  0  0  0  0  0  0  0  0  0
   13.3280    3.5436    0.0000 C   0  0  0  0  0  0  0  0  0  0  0  0
    9.7869    7.0480    0.0000 C   0  0  0  0  0  0  0  0  0  0  0  0
    9.4611    7.9571    0.0000 C   0  0  2  0  0  0  0  0  0  0  0  0
    7.8149    0.6234    0.0000 C   0  0  0  0  0  0  0  0  0  0  0  0
    9.6854    0.4843    0.0000 C   0  0  0  0  0  0  0  0  0  0  0  0
    6.9912    4.3173    0.0000 C   0  0  0  0  0  0  0  0  0  0  0  0
    8.4868    7.9571    0.0000 C   0  0  1  0  0  0  0  0  0  0  0  0
   11.4636    7.4328    0.0000 C   0  0  0  0  0  0  0  0  0  0  0  0
    6.0494    4.5780    0.0000 C   0  0  2  0  0  0  0  0  0  0  0  0
    6.0494    5.5522    0.0000 C   0  0  0  0  0  0  0  0  0  0  0  0
    6.6137    2.6664    0.0000 C   0  0  0  0  0  0  0  0  0  0  0  0
    8.1935    7.0154    0.0000 C   0  0  0  0  0  0  0  0  0  0  0  0
    9.4462    8.9570    0.0000 C   0  0  0  0  0  0  0  0  0  0  0  0
    6.9912    5.8129    0.0000 C   0  0  0  0  0  0  0  0  0  0  0  0
   10.4075    8.2803    0.0000 C   0  0  0  0  0  0  0  0  0  0  0  0
   13.1377    7.9558    0.0000 C   0  0  0  0  0  0  0  0  0  0  0  0
    7.8941    8.7625    0.0000 C   0  0  0  0  0  0  0  0  0  0  0  0
    7.9194   -0.3711    0.0000 C   0  0  0  0  0  0  0  0  0  0  0  0
    7.2519    6.7546    0.0000 C   0  0  0  0  0  0  0  0  0  0  0  0
    5.2536    3.9725    0.0000 C   0  0  0  0  0  0  0  0  0  0  0  0
    8.7528    5.3064    0.0000 C   0  5  0  0  0  0  0  0  0  0  0  0
    5.0497    5.5742    0.0000 C   0  0  0  0  0  0  0  0  0  0  0  0
    5.7614    6.5098    0.0000 C   0  0  0  0  0  0  0  0  0  0  0  0
    8.2952    9.6785    0.0000 C   0  0  0  0  0  0  0  0  0  0  0  0
   10.3046    9.4699    0.0000 C   0  0  0  0  0  0  0  0  0  0  0  0
    4.3313    4.3590    0.0000 C   0  0  0  0  0  0  0  0  0  0  0  0
    7.2149   -1.9534    0.0000 C   0  0  0  0  0  0  0  0  0  0  0  0
    7.7025   10.4839    0.0000 C   0  0  0  0  0  0  0  0  0  0  0  0
    3.5354    3.7535    0.0000 C   0  0  0  0  0  0  0  0  0  0  0  0
    6.4059   -2.5412    0.0000 C   0  0  1  0  0  0  0  0  0  0  0  0
    5.4924   -2.1345    0.0000 C   0  0  0  0  0  0  0  0  0  0  0  0
    4.9969   -5.7058    0.0000 C   0  0  1  0  0  0  0  0  0  0  0  0
    5.8629   -6.2058    0.0000 C   0  0  2  0  0  0  0  0  0  0  0  0
    4.2537   -6.3749    0.0000 C   0  0  1  0  0  0  0  0  0  0  0  0
    5.6550   -7.1840    0.0000 C   0  0  3  0  0  0  0  0  0  0  0  0
    3.2756   -6.1670    0.0000 C   0  0  0  0  0  0  0  0  0  0  0  0
    6.1166   -8.8993    0.0000 C   0  0  0  0  0  0  0  0  0  0  0  0
    7.3126   -7.8224    0.0000 C   0  0  0  0  0  0  0  0  0  0  0  0
    6.9835   -9.3978    0.0000 C   0  0  0  0  0  0  0  0  0  0  0  0
    5.2514   -9.4008    0.0000 C   0  0  0  0  0  0  0  0  0  0  0  0
    6.9852  -10.3978    0.0000 C   0  0  0  0  0  0  0  0  0  0  0  0
    5.2531  -10.4008    0.0000 C   0  0  0  0  0  0  0  0  0  0  0  0
    6.1200  -10.8993    0.0000 C   0  0  0  0  0  0  0  0  0  0  0  0
    4.3880  -10.9023    0.0000 C   0  0  0  0  0  0  0  0  0  0  0  0
    6.1217  -11.8993    0.0000 C   0  0  0  0  0  0  0  0  0  0  0  0
   10.5087    2.6984    0.0000 H   0  0  0  0  0  0  0  0  0  0  0  0
   12.5355    5.3453    0.0000 H   0  0  0  0  0  0  0  0  0  0  0  0
    9.2140    1.6524    0.0000 H   0  0  0  0  0  0  0  0  0  0  0  0
   13.5603    4.5995    0.0000 H   0  0  0  0  0  0  0  0  0  0  0  0
   12.9325    5.0906    0.0000 H   0  0  0  0  0  0  0  0  0  0  0  0
   11.0109    3.1740    0.0000 H   0  0  0  0  0  0  0  0  0  0  0  0
   11.8568    2.9434    0.0000 H   0  0  0  0  0  0  0  0  0  0  0  0
   12.0874    3.7893    0.0000 H   0  0  0  0  0  0  0  0  0  0  0  0
   11.5262    3.5183    0.0000 H   0  0  0  0  0  0  0  0  0  0  0  0
   12.2442    3.0150    0.0000 H   0  0  0  0  0  0  0  0  0  0  0  0
   12.7474    3.7330    0.0000 H   0  0  0  0  0  0  0  0  0  0  0  0
   13.0279    5.7757    0.0000 H   0  0  0  0  0  0  0  0  0  0  0  0
   13.2402    6.5440    0.0000 H   0  0  0  0  0  0  0  0  0  0  0  0
   10.6027    1.0568    0.0000 H   0  0  0  0  0  0  0  0  0  0  0  0
   10.5144    1.8490    0.0000 H   0  0  0  0  0  0  0  0  0  0  0  0
    8.8957    0.6539    0.0000 H   0  0  0  0  0  0  0  0  0  0  0  0
    9.2199    1.3821    0.0000 H   0  0  0  0  0  0  0  0  0  0  0  0
    7.3537    2.3654    0.0000 H   0  0  0  0  0  0  0  0  0  0  0  0
    7.0395    1.5468    0.0000 H   0  0  0  0  0  0  0  0  0  0  0  0
    7.8580    1.2326    0.0000 H   0  0  0  0  0  0  0  0  0  0  0  0
   12.0734    7.7649    0.0000 H   0  0  0  0  0  0  0  0  0  0  0  0
   11.8611    6.9967    0.0000 H   0  0  0  0  0  0  0  0  0  0  0  0
    7.5431    1.1806    0.0000 H   0  0  0  0  0  0  0  0  0  0  0  0
    7.2189    0.4525    0.0000 H   0  0  0  0  0  0  0  0  0  0  0  0
    7.8754    7.8545    0.0000 H   0  0  0  0  0  0  0  0  0  0  0  0
   11.8840    6.9772    0.0000 H   0  0  0  0  0  0  0  0  0  0  0  0
   11.9192    7.8533    0.0000 H   0  0  0  0  0  0  0  0  0  0  0  0
   11.0431    7.8885    0.0000 H   0  0  0  0  0  0  0  0  0  0  0  0
    6.1666    3.9691    0.0000 H   0  0  0  0  0  0  0  0  0  0  0  0
    6.1538    3.0823    0.0000 H   0  0  0  0  0  0  0  0  0  0  0  0
    6.1978    2.2066    0.0000 H   0  0  0  0  0  0  0  0  0  0  0  0
    7.0735    2.2506    0.0000 H   0  0  0  0  0  0  0  0  0  0  0  0
    9.2254    9.5363    0.0000 H   0  0  0  0  0  0  0  0  0  0  0  0
    8.8373    8.8402    0.0000 H   0  0  0  0  0  0  0  0  0  0  0  0
   10.6079    7.6936    0.0000 H   0  0  0  0  0  0  0  0  0  0  0  0
   10.9942    8.4807    0.0000 H   0  0  0  0  0  0  0  0  0  0  0  0
   10.2071    8.8670    0.0000 H   0  0  0  0  0  0  0  0  0  0  0  0
   14.7001    3.8923    0.0000 H   0  0  0  0  0  0  0  0  0  0  0  0
   14.5502    2.8290    0.0000 H   0  0  0  0  0  0  0  0  0  0  0  0
    7.3780    9.1060    0.0000 H   0  0  0  0  0  0  0  0  0  0  0  0
    7.4661    8.3139    0.0000 H   0  0  0  0  0  0  0  0  0  0  0  0
    6.8171    7.1966    0.0000 H   0  0  0  0  0  0  0  0  0  0  0  0
    4.9183    3.4510    0.0000 H   0  0  0  0  0  0  0  0  0  0  0  0
    5.7089    3.5517    0.0000 H   0  0  0  0  0  0  0  0  0  0  0  0
   10.8944   -0.2525    0.0000 H   0  0  0  0  0  0  0  0  0  0  0  0
   10.0295   -0.8890    0.0000 H   0  0  0  0  0  0  0  0  0  0  0  0
    5.0633    6.1941    0.0000 H   0  0  0  0  0  0  0  0  0  0  0  0
    4.4298    5.5879    0.0000 H   0  0  0  0  0  0  0  0  0  0  0  0
    5.0360    4.9544    0.0000 H   0  0  0  0  0  0  0  0  0  0  0  0
    6.3552    6.6884    0.0000 H   0  0  0  0  0  0  0  0  0  0  0  0
    5.5829    7.1036    0.0000 H   0  0  0  0  0  0  0  0  0  0  0  0
    5.1677    6.3313    0.0000 H   0  0  0  0  0  0  0  0  0  0  0  0
    8.8114    9.3349    0.0000 H   0  0  0  0  0  0  0  0  0  0  0  0
    8.7232   10.1271    0.0000 H   0  0  0  0  0  0  0  0  0  0  0  0
    4.6666    4.8805    0.0000 H   0  0  0  0  0  0  0  0  0  0  0  0
    3.8759    4.7798    0.0000 H   0  0  0  0  0  0  0  0  0  0  0  0
    6.5440   -0.7067    0.0000 H   0  0  0  0  0  0  0  0  0  0  0  0
   14.5434    8.1244    0.0000 H   0  0  0  0  0  0  0  0  0  0  0  0
   14.2573    7.0893    0.0000 H   0  0  0  0  0  0  0  0  0  0  0  0
    7.4867   -2.5107    0.0000 H   0  0  0  0  0  0  0  0  0  0  0  0
    7.8109   -1.7825    0.0000 H   0  0  0  0  0  0  0  0  0  0  0  0
   10.8219   10.7878    0.0000 H   0  0  0  0  0  0  0  0  0  0  0  0
    9.7482   10.7717    0.0000 H   0  0  0  0  0  0  0  0  0  0  0  0
    5.9043   -2.9056    0.0000 H   0  0  0  0  0  0  0  0  0  0  0  0
    7.7362   11.8993    0.0000 H   0  0  0  0  0  0  0  0  0  0  0  0
    8.7199   11.4685    0.0000 H   0  0  0  0  0  0  0  0  0  0  0  0
    2.1197    3.7646    0.0000 H   0  0  0  0  0  0  0  0  0  0  0  0
    2.5347    4.7551    0.0000 H   0  0  0  0  0  0  0  0  0  0  0  0
    5.7445   -1.5681    0.0000 H   0  0  0  0  0  0  0  0  0  0  0  0
    4.9260   -1.8823    0.0000 H   0  0  0  0  0  0  0  0  0  0  0  0
    5.2402   -2.7008    0.0000 H   0  0  0  0  0  0  0  0  0  0  0  0
    4.4181   -5.4836    0.0000 H   0  0  0  0  0  0  0  0  0  0  0  0
    6.3447   -6.5960    0.0000 H   0  0  0  0  0  0  0  0  0  0  0  0
    3.8636   -6.8568    0.0000 H   0  0  0  0  0  0  0  0  0  0  0  0
    5.4328   -7.7628    0.0000 H   0  0  0  0  0  0  0  0  0  0  0  0
    3.5078   -5.5922    0.0000 H   0  0  0  0  0  0  0  0  0  0  0  0
    2.7498   -5.8384    0.0000 H   0  0  0  0  0  0  0  0  0  0  0  0
    7.2780   -6.1635    0.0000 H   0  0  0  0  0  0  0  0  0  0  0  0
    7.6217   -7.2849    0.0000 H   0  0  0  0  0  0  0  0  0  0  0  0
    2.0000   -6.7812    0.0000 H   0  0  0  0  0  0  0  0  0  0  0  0
    4.7139   -9.0917    0.0000 H   0  0  0  0  0  0  0  0  0  0  0  0
    7.5226  -10.7069    0.0000 H   0  0  0  0  0  0  0  0  0  0  0  0
    4.0770  -10.3659    0.0000 H   0  0  0  0  0  0  0  0  0  0  0  0
    3.8516  -11.2132    0.0000 H   0  0  0  0  0  0  0  0  0  0  0  0
    4.6989  -11.4387    0.0000 H   0  0  0  0  0  0  0  0  0  0  0  0
    5.5017  -11.9003    0.0000 H   0  0  0  0  0  0  0  0  0  0  0  0
    6.1228  -12.5193    0.0000 H   0  0  0  0  0  0  0  0  0  0  0  0
    6.7417  -11.8982    0.0000 H   0  0  0  0  0  0  0  0  0  0  0  0
  2 10  1  0  0  0  0
  2 11  1  0  0  0  0
  2 12  1  0  0  0  0
  2 13  2  0  0  0  0
  3 49  2  0  0  0  0
  4 53  2  0  0  0  0
  5 64  2  0  0  0  0
  6 66  2  0  0  0  0
  7 73  2  0  0  0  0
  8 76  2  0  0  0  0
  9 77  2  0  0  0  0
 78 10  1  6  0  0  0
 80 11  1  1  0  0  0
 14 82  1  0  0  0  0
 14 83  1  0  0  0  0
 81 15  1  1  0  0  0
 15171  1  0  0  0  0
 16 84  1  0  0  0  0
 16173  1  0  0  0  0
 17 31  1  0  0  0  0
 17 37  1  0  0  0  0
 18 33  1  0  0  0  0
 18 41  2  0  0  0  0
 19 50  2  0  0  0  0
 19 60  1  0  0  0  0
 20 49  1  0  0  0  0
 20131  1  0  0  0  0
 20132  1  0  0  0  0
 21 54  1  0  0  0  0
 21 62  2  0  0  0  0
 22 53  1  0  0  0  0
 22138  1  0  0  0  0
 22139  1  0  0  0  0
 23 66  1  0  0  0  0
 23 75  1  0  0  0  0
 23150  1  0  0  0  0
 24 64  1  0  0  0  0
 24151  1  0  0  0  0
 24152  1  0  0  0  0
 25 69  3  0  0  0  0
 26 73  1  0  0  0  0
 26155  1  0  0  0  0
 26156  1  0  0  0  0
 27 76  1  0  0  0  0
 27158  1  0  0  0  0
 27159  1  0  0  0  0
 28 77  1  0  0  0  0
 28160  1  0  0  0  0
 28161  1  0  0  0  0
 29 83  1  0  0  0  0
 29 85  1  0  0  0  0
 29 86  1  0  0  0  0
 30 86  2  0  0  0  0
 30 87  1  0  0  0  0
 31 32  1  0  0  0  0
 31 33  1  0  0  0  0
 31 39  1  1  0  0  0
 32 34  1  0  0  0  0
 32 38  1  0  0  0  0
 32 40  1  1  0  0  0
 33 35  1  0  0  0  0
 33 94  1  6  0  0  0
 34 37  1  0  0  0  0
 34 42  1  1  0  0  0
 34 95  1  0  0  0  0
 35 36  1  0  0  0  0
 35 43  1  6  0  0  0
 35 96  1  0  0  0  0
 36 41  1  0  0  0  0
 36 44  1  0  0  0  0
 36 45  1  6  0  0  0
 37 46  2  0  0  0  0
 38 49  1  0  0  0  0
 38 97  1  0  0  0  0
 38 98  1  0  0  0  0
 39 99  1  0  0  0  0
 39100  1  0  0  0  0
 39101  1  0  0  0  0
 40102  1  0  0  0  0
 40103  1  0  0  0  0
 40104  1  0  0  0  0
 41 47  1  0  0  0  0
 42 48  1  0  0  0  0
 42105  1  0  0  0  0
 42106  1  0  0  0  0
 43 53  1  0  0  0  0
 43107  1  0  0  0  0
 43108  1  0  0  0  0
 44 52  1  0  0  0  0
 44109  1  0  0  0  0
 44110  1  0  0  0  0
 45111  1  0  0  0  0
 45112  1  0  0  0  0
 45113  1  0  0  0  0
 46 50  1  0  0  0  0
 46 56  1  0  0  0  0
 47 54  2  0  0  0  0
 47 59  1  0  0  0  0
 48 64  1  0  0  0  0
 48114  1  0  0  0  0
 48115  1  0  0  0  0
 50 51  1  0  0  0  0
 51 55  1  0  0  0  0
 51 61  1  0  0  0  0
 51 63  1  1  0  0  0
 52 66  1  0  0  0  0
 52116  1  0  0  0  0
 52117  1  0  0  0  0
 54 57  1  0  0  0  0
 55 60  1  0  0  0  0
 55 65  1  1  0  0  0
 55118  1  0  0  0  0
 56119  1  0  0  0  0
 56120  1  0  0  0  0
 56121  1  0  0  0  0
 57 58  1  0  0  0  0
 57 68  1  1  0  0  0
 57122  1  0  0  0  0
 58 62  1  0  0  0  0
 58 70  1  0  0  0  0
 58 71  1  0  0  0  0
 59123  1  0  0  0  0
 59124  1  0  0  0  0
 59125  1  0  0  0  0
 60 67  2  0  0  0  0
 61 73  1  0  0  0  0
 61126  1  0  0  0  0
 61127  1  0  0  0  0
 62 67  1  0  0  0  0
 63128  1  0  0  0  0
 63129  1  0  0  0  0
 63130  1  0  0  0  0
 65 72  1  0  0  0  0
 65133  1  0  0  0  0
 65134  1  0  0  0  0
 67135  1  0  0  0  0
 68 74  1  0  0  0  0
 68136  1  0  0  0  0
 68137  1  0  0  0  0
 70140  1  0  0  0  0
 70141  1  0  0  0  0
 70142  1  0  0  0  0
 71143  1  0  0  0  0
 71144  1  0  0  0  0
 71145  1  0  0  0  0
 72 76  1  0  0  0  0
 72146  1  0  0  0  0
 72147  1  0  0  0  0
 74 77  1  0  0  0  0
 74148  1  0  0  0  0
 74149  1  0  0  0  0
 75 78  1  0  0  0  0
 75153  1  0  0  0  0
 75154  1  0  0  0  0
 78 79  1  0  0  0  0
 78157  1  0  0  0  0
 79162  1  0  0  0  0
 79163  1  0  0  0  0
 79164  1  0  0  0  0
 80 81  1  0  0  0  0
 80 82  1  0  0  0  0
 80165  1  0  0  0  0
 81 83  1  0  0  0  0
 81166  1  0  0  0  0
 82 84  1  6  0  0  0
 82167  1  0  0  0  0
 83168  1  0  0  0  0
 84169  1  0  0  0  0
 84170  1  0  0  0  0
 85 87  2  0  0  0  0
 85 88  1  0  0  0  0
 86172  1  0  0  0  0
 87 89  1  0  0  0  0
 88 90  2  0  0  0  0
 88174  1  0  0  0  0
 89 91  2  0  0  0  0
 89175  1  0  0  0  0
 90 91  1  0  0  0  0
 90 92  1  0  0  0  0
 91 93  1  0  0  0  0
 92176  1  0  0  0  0
 92177  1  0  0  0  0
 92178  1  0  0  0  0
 93179  1  0  0  0  0
 93180  1  0  0  0  0
 93181  1  0  0  0  0
M  CHG  4   1   3  12  -1  17  -1  69  -1
M  END
> <PUBCHEM_COMPOUND_CID>
16212801

> <PUBCHEM_COMPOUND_CANONICALIZED>
1

> <PUBCHEM_CACTVS_COMPLEXITY>
3220

> <PUBCHEM_CACTVS_HBOND_ACCEPTOR>
21

> <PUBCHEM_CACTVS_HBOND_DONOR>
9

> <PUBCHEM_CACTVS_ROTATABLE_BOND>
26

> <PUBCHEM_CACTVS_SUBSKEYS>
AAADcfB//AIAAAAQAAAAAAAAAAAAAWLEiBAwAAAAAAAAAFgB8AAAHgAQCCAAD7zhngY30LfMFxC4QyVzdICCgC0xEqAB2KE4dJiLeLLAmZGeYAhvlgLbyCf8ucKfiAAAQAAQACAQAACAACAAQAAAAAAAAA==

> <PUBCHEM_IUPAC_OPENEYE_NAME>
cobaltic;[(2R,3S,4R)-5-(5,6-dimethylbenzimidazol-1-yl)-4-hydroxy-2-(hydroxymethyl)tetrahydrofuran-3-yl] [(1R)-1-methyl-2-[3-[(1R,2R,3R,5Z,7S,10Z,12S,13S,15Z,17S,18S,19R)-2,13,18-tris(2-amino-2-oxo-ethyl)-7,12,17-tris(3-amino-3-oxo-propyl)-3,5,8,8,13,15,18,19-octamethyl-2,7,12,17-tetrahydro-1H-corrin-24-id-3-yl]propanoylamino]ethyl] phosphate;cyanide

> <PUBCHEM_IUPAC_CAS_NAME>
cobalt(3+);[(2R,3S,4R)-5-(5,6-dimethyl-1-benzimidazolyl)-4-hydroxy-2-(hydroxymethyl)-3-oxolanyl] [(2R)-1-[[1-oxo-3-[(1R,2R,3R,5Z,7S,10Z,12S,13S,15Z,17S,18S,19R)-2,13,18-tris(2-amino-2-oxoethyl)-7,12,17-tris(3-amino-3-oxopropyl)-3,5,8,8,13,15,18,19-octamethyl-2,7,12,17-tetrahydro-1H-corrin-24-id-3-yl]propyl]amino]propan-2-yl] phosphate;cyanide

> <PUBCHEM_IUPAC_NAME_MARKUP>
cobalt(3+);[(2<I>R</I>,3<I>S</I>,4<I>R</I>)-5-(5,6-dimethylbenzimidazol-1-yl)-4-hydroxy-2-(hydroxymethyl)oxolan-3-yl] [(2<I>R</I>)-1-[3-[(1<I>R</I>,2<I>R</I>,3<I>R</I>,5<I>Z</I>,7<I>S</I>,10<I>Z</I>,12<I>S</I>,13<I>S</I>,15<I>Z</I>,17<I>S</I>,18<I>S</I>,19<I>R</I>)-2,13,18-tris(2-amino-2-oxoethyl)-7,12,17-tris(3-amino-3-oxopropyl)-3,5,8,8,13,15,18,19-octamethyl-2,7,12,17-tetrahydro-1<I>H</I>-corrin-24-id-3-yl]propanoylamino]propan-2-yl] phosphate;cyanide

> <PUBCHEM_IUPAC_NAME>
cobalt(3+);[(2R,3S,4R)-5-(5,6-dimethylbenzimidazol-1-yl)-4-hydroxy-2-(hydroxymethyl)oxolan-3-yl] [(2R)-1-[3-[(1R,2R,3R,5Z,7S,10Z,12S,13S,15Z,17S,18S,19R)-2,13,18-tris(2-amino-2-oxoethyl)-7,12,17-tris(3-amino-3-oxopropyl)-3,5,8,8,13,15,18,19-octamethyl-2,7,12,17-tetrahydro-1H-corrin-24-id-3-yl]propanoylamino]propan-2-yl] phosphate;cyanide

> <PUBCHEM_IUPAC_SYSTEMATIC_NAME>
cobalt(3+);[(2R,3S,4R)-5-(5,6-dimethylbenzimidazol-1-yl)-2-(hydroxymethyl)-4-oxidanyl-oxolan-3-yl] [(2R)-1-[3-[(1R,2R,3R,5Z,7S,10Z,12S,13S,15Z,17S,18S,19R)-2,13,18-tris(2-azanyl-2-oxidanylidene-ethyl)-7,12,17-tris(3-azanyl-3-oxidanylidene-propyl)-3,5,8,8,13,15,18,19-octamethyl-2,7,12,17-tetrahydro-1H-corrin-24-id-3-yl]propanoylamino]propan-2-yl] phosphate;cyanide

> <PUBCHEM_IUPAC_TRADITIONAL_NAME>
cobaltic;[(2R,3S,4R)-5-(5,6-dimethylbenzimidazol-1-yl)-4-hydroxy-2-methylol-tetrahydrofuran-3-yl] [(1R)-1-methyl-2-[3-[(1R,2R,3R,5Z,7S,10Z,12S,13S,15Z,17S,18S,19R)-2,13,18-tris(2-amino-2-keto-ethyl)-7,12,17-tris(3-amino-3-keto-propyl)-3,5,8,8,13,15,18,19-octamethyl-2,7,12,17-tetrahydro-1H-corrin-24-id-3-yl]propanoylamino]ethyl] phosphate;cyanide

> <PUBCHEM_IUPAC_INCHI>
InChI=1S/C62H90N13O14P.CN.Co/c1-29-20-39-40(21-30(29)2)75(28-70-39)57-52(84)53(41(27-76)87-57)89-90(85,86)88-31(3)26-69-49(83)18-19-59(8)37(22-46(66)80)56-62(11)61(10,25-48(68)82)36(14-17-45(65)79)51(74-62)33(5)55-60(9,24-47(67)81)34(12-15-43(63)77)38(71-55)23-42-58(6,7)35(13-16-44(64)78)50(72-42)32(4)54(59)73-56;1-2;/h20-21,23,28,31,34-37,41,52-53,56-57,76,84H,12-19,22,24-27H2,1-11H3,(H15,63,64,65,66,67,68,69,71,72,73,74,77,78,79,80,81,82,83,85,86);;/q;-1;+3/p-2/t31-,34-,35-,36-,37+,41-,52-,53-,56-,57?,59-,60+,61+,62+;;/m1../s1

> <PUBCHEM_IUPAC_INCHIKEY>
FDJOLVPMNUYSCM-QJRSUKKJSA-L

> <PUBCHEM_EXACT_MASS>
1354.567399

> <PUBCHEM_MOLECULAR_FORMULA>
C63H88CoN14O14P

> <PUBCHEM_MOLECULAR_WEIGHT>
1355.4

> <PUBCHEM_OPENEYE_CAN_SMILES>
CC1=CC2=C(C=C1C)N(C=N2)C3C(C(C(O3)CO)OP(=O)([O-])OC(C)CNC(=O)CCC4(C(C5C6(C(C(C(=C(C7=NC(=CC8=NC(=C(C4=N5)C)C(C8(C)C)CCC(=O)N)C(C7(C)CC(=O)N)CCC(=O)N)C)[N-]6)CCC(=O)N)(C)CC(=O)N)C)CC(=O)N)C)O.[C-]#N.[Co+3]

> <PUBCHEM_OPENEYE_ISO_SMILES>
CC1=CC2=C(C=C1C)N(C=N2)C3[C@@H]([C@@H]([C@H](O3)CO)OP(=O)([O-])O[C@H](C)CNC(=O)CC[C@@]4([C@H]([C@@H]5[C@]6([C@@]([C@@H](/C(=C(/C7=N/C(=C\C8=N/C(=C(\C4=N5)/C)/[C@H](C8(C)C)CCC(=O)N)/[C@H]([C@]7(C)CC(=O)N)CCC(=O)N)\C)/[N-]6)CCC(=O)N)(C)CC(=O)N)C)CC(=O)N)C)O.[C-]#N.[Co+3]

> <PUBCHEM_CACTVS_TPSA>
476

> <PUBCHEM_MONOISOTOPIC_WEIGHT>
1354.567399

> <PUBCHEM_TOTAL_CHARGE>
0

> <PUBCHEM_HEAVY_ATOM_COUNT>
93

> <PUBCHEM_ATOM_DEF_STEREO_COUNT>
13

> <PUBCHEM_ATOM_UDEF_STEREO_COUNT>
1

> <PUBCHEM_BOND_DEF_STEREO_COUNT>
3

> <PUBCHEM_BOND_UDEF_STEREO_COUNT>
0

> <PUBCHEM_ISOTOPIC_ATOM_COUNT>
0

> <PUBCHEM_COMPONENT_COUNT>
3

> <PUBCHEM_CACTVS_TAUTO_COUNT>
-1

> <PUBCHEM_NONSTANDARDBOND>
1  17  6
1  69  6

> <PUBCHEM_COORDINATE_TYPE>
1
5
255

> <PUBCHEM_BONDANNOTATIONS>
78  10  6
80  11  5
81  15  5
83  29  3
29  85  8
29  86  8
30  86  8
30  87  8
31  39  5
32  40  5
33  94  6
34  42  5
35  43  6
36  45  6
51  63  5
55  65  5
57  68  5
82  84  6
85  87  8
85  88  8
87  89  8
88  90  8
89  91  8
90  91  8

$$$$
16211101
  -OEChem-04052116402D

 25 23  0     1  0  0  0  0  0999 V2000
    3.5010    0.0000    0.0000 Cl  0  0  0  0  0  0  0  0  0  0  0  0
    3.1350    4.3100    0.0000 O   0  0  0  0  0  0  0  0  0  0  0  0
    7.4651    3.8100    0.0000 O   0  0  0  0  0  0  0  0  0  0  0  0
    6.5991    5.3100    0.0000 O   0  0  0  0  0  0  0  0  0  0  0  0
    5.7331    2.8100    0.0000 N   0  0  0  0  0  0  0  0  0  0  0  0
    0.5369    3.8100    0.0000 N   0  0  0  0  0  0  0  0  0  0  0  0
    5.7331    3.8100    0.0000 C   0  0  1  0  0  0  0  0  0  0  0  0
    2.2690    3.8100    0.0000 C   0  0  0  0  0  0  0  0  0  0  0  0
    4.8671    4.3100    0.0000 C   0  0  0  0  0  0  0  0  0  0  0  0
    1.4030    4.3100    0.0000 C   0  0  0  0  0  0  0  0  0  0  0  0
    4.0010    3.8100    0.0000 C   0  0  0  0  0  0  0  0  0  0  0  0
    6.5991    4.3100    0.0000 C   0  0  0  0  0  0  0  0  0  0  0  0
    6.2700    3.5000    0.0000 H   0  0  0  0  0  0  0  0  0  0  0  0
    1.8705    3.3350    0.0000 H   0  0  0  0  0  0  0  0  0  0  0  0
    2.6675    3.3350    0.0000 H   0  0  0  0  0  0  0  0  0  0  0  0
    4.8671    4.9300    0.0000 H   0  0  0  0  0  0  0  0  0  0  0  0
    1.8015    4.7850    0.0000 H   0  0  0  0  0  0  0  0  0  0  0  0
    1.0044    4.7850    0.0000 H   0  0  0  0  0  0  0  0  0  0  0  0
    4.0010    3.1900    0.0000 H   0  0  0  0  0  0  0  0  0  0  0  0
    6.2700    2.5000    0.0000 H   0  0  0  0  0  0  0  0  0  0  0  0
    5.1962    2.5000    0.0000 H   0  0  0  0  0  0  0  0  0  0  0  0
    0.0000    4.1200    0.0000 H   0  0  0  0  0  0  0  0  0  0  0  0
    0.5369    3.1900    0.0000 H   0  0  0  0  0  0  0  0  0  0  0  0
    8.0021    4.1200    0.0000 H   0  0  0  0  0  0  0  0  0  0  0  0
    4.5010    0.0000    0.0000 H   0  0  0  0  0  0  0  0  0  0  0  0
  1 25  1  0  0  0  0
  2  8  1  0  0  0  0
  2 11  1  0  0  0  0
  3 12  1  0  0  0  0
  3 24  1  0  0  0  0
  4 12  2  0  0  0  0
  7  5  1  1  0  0  0
  5 20  1  0  0  0  0
  5 21  1  0  0  0  0
  6 10  1  0  0  0  0
  6 22  1  0  0  0  0
  6 23  1  0  0  0  0
  7  9  1  0  0  0  0
  7 12  1  0  0  0  0
  7 13  1  0  0  0  0
  8 10  1  0  0  0  0
  8 14  1  0  0  0  0
  8 15  1  0  0  0  0
  9 11  2  0  0  0  0
  9 16  1  0  0  0  0
 10 17  1  0  0  0  0
 10 18  1  0  0  0  0
 11 19  1  0  0  0  0
M  END
> <PUBCHEM_COMPOUND_CID>
16211101

> <PUBCHEM_COMPOUND_CANONICALIZED>
1

> <PUBCHEM_CACTVS_COMPLEXITY>
147

> <PUBCHEM_CACTVS_HBOND_ACCEPTOR>
5

> <PUBCHEM_CACTVS_HBOND_DONOR>
4

> <PUBCHEM_CACTVS_ROTATABLE_BOND>
5

> <PUBCHEM_CACTVS_SUBSKEYS>
AAADccBjMAAEAAAAAAAAAAAAAAAAAAAAAAAAAAAAAAAAAAAAAAAAHgAQCAAACCjhgAYACABABgCIACDSCACACAAgIAAIAIGAAAgCAAAAAQABQAAAUAAAAAAAAAAAAAAAAAAAAAAAAAAAAAAAAAAAAAAAAA==

> <PUBCHEM_IUPAC_OPENEYE_NAME>
(E,2S)-2-amino-4-(2-aminoethoxy)but-3-enoic acid;hydrochloride

> <PUBCHEM_IUPAC_CAS_NAME>
(E,2S)-2-amino-4-(2-aminoethoxy)-3-butenoic acid;hydrochloride

> <PUBCHEM_IUPAC_NAME_MARKUP>
(<I>E</I>,2<I>S</I>)-2-amino-4-(2-aminoethoxy)but-3-enoic acid;hydrochloride

> <PUBCHEM_IUPAC_NAME>
(E,2S)-2-amino-4-(2-aminoethoxy)but-3-enoic acid;hydrochloride

> <PUBCHEM_IUPAC_SYSTEMATIC_NAME>
(E,2S)-2-azanyl-4-(2-azanylethoxy)but-3-enoic acid;hydrochloride

> <PUBCHEM_IUPAC_TRADITIONAL_NAME>
(E,2S)-2-amino-4-(2-aminoethoxy)but-3-enoic acid;hydrochloride

> <PUBCHEM_IUPAC_INCHI>
InChI=1S/C6H12N2O3.ClH/c7-2-4-11-3-1-5(8)6(9)10;/h1,3,5H,2,4,7-8H2,(H,9,10);1H/b3-1+;/t5-;/m0./s1

> <PUBCHEM_IUPAC_INCHIKEY>
ZDCPLYVEFATMJF-BTIOQYSDSA-N

> <PUBCHEM_EXACT_MASS>
196.06147

> <PUBCHEM_MOLECULAR_FORMULA>
C6H13ClN2O3

> <PUBCHEM_MOLECULAR_WEIGHT>
196.63

> <PUBCHEM_OPENEYE_CAN_SMILES>
C(COC=CC(C(=O)O)N)N.Cl

> <PUBCHEM_OPENEYE_ISO_SMILES>
C(CO/C=C/[C@@H](C(=O)O)N)N.Cl

> <PUBCHEM_CACTVS_TPSA>
98.6

> <PUBCHEM_MONOISOTOPIC_WEIGHT>
196.06147

> <PUBCHEM_TOTAL_CHARGE>
0

> <PUBCHEM_HEAVY_ATOM_COUNT>
12

> <PUBCHEM_ATOM_DEF_STEREO_COUNT>
1

> <PUBCHEM_ATOM_UDEF_STEREO_COUNT>
0

> <PUBCHEM_BOND_DEF_STEREO_COUNT>
1

> <PUBCHEM_BOND_UDEF_STEREO_COUNT>
0

> <PUBCHEM_ISOTOPIC_ATOM_COUNT>
0

> <PUBCHEM_COMPONENT_COUNT>
2

> <PUBCHEM_CACTVS_TAUTO_COUNT>
-1

> <PUBCHEM_COORDINATE_TYPE>
1
5
255

> <PUBCHEM_BONDANNOTATIONS>
7  5  5

$$$$
16132245
  -OEChem-04052116402D

400404  0     1  0  0  0  0  0999 V2000
   15.9076    0.9912    0.0000 S   0  0  0  0  0  0  0  0  0  0  0  0
   44.1910    8.3250    0.0000 S   0  0  0  0  0  0  0  0  0  0  0  0
   26.6025   -0.6750    0.0000 S   0  0  0  0  0  0  0  0  0  0  0  0
   29.2006    3.8250    0.0000 S   0  0  0  0  0  0  0  0  0  0  0  0
   59.5003   15.7930    0.0000 S   0  0  0  0  0  0  0  0  0  0  0  0
    9.8164  -11.0045    0.0000 S   0  0  0  0  0  0  0  0  0  0  0  0
   31.7987    0.3250    0.0000 S   0  0  0  0  0  0  0  0  0  0  0  0
   19.2960    0.2710    0.0000 O   0  0  0  0  0  0  0  0  0  0  0  0
   20.5404    0.8250    0.0000 O   0  0  0  0  0  0  0  0  0  0  0  0
   52.2532    7.8250    0.0000 O   0  0  0  0  0  0  0  0  0  0  0  0
   53.4975    8.3790    0.0000 O   0  0  0  0  0  0  0  0  0  0  0  0
   21.4064    0.3250    0.0000 O   0  0  0  0  0  0  0  0  0  0  0  0
   15.6997    0.0131    0.0000 O   0  0  0  0  0  0  0  0  0  0  0  0
   49.6551    5.3250    0.0000 O   0  0  0  0  0  0  0  0  0  0  0  0
   23.1384    3.3250    0.0000 O   0  0  0  0  0  0  0  0  0  0  0  0
   57.0938    8.6370    0.0000 O   0  0  0  0  0  0  0  0  0  0  0  0
   46.9230    7.8250    0.0000 O   0  0  0  0  0  0  0  0  0  0  0  0
   15.8191   -3.5905    0.0000 O   0  0  0  0  0  0  0  0  0  0  0  0
   25.7365    0.8250    0.0000 O   0  0  0  0  0  0  0  0  0  0  0  0
   56.9744   12.2405    0.0000 O   0  0  0  0  0  0  0  0  0  0  0  0
   44.1910    5.3250    0.0000 O   0  0  0  0  0  0  0  0  0  0  0  0
   44.3250    3.3250    0.0000 O   0  0  0  0  0  0  0  0  0  0  0  0
   12.2228   -3.8484    0.0000 O   0  0  0  0  0  0  0  0  0  0  0  0
   28.3346    3.3250    0.0000 O   0  0  0  0  0  0  0  0  0  0  0  0
   60.5707   12.4984    0.0000 O   0  0  0  0  0  0  0  0  0  0  0  0
   12.3422   -7.4520    0.0000 O   0  0  0  0  0  0  0  0  0  0  0  0
   37.8609    6.8250    0.0000 O   0  0  0  0  0  0  0  0  0  0  0  0
   30.9327    0.8250    0.0000 O   0  0  0  0  0  0  0  0  0  0  0  0
   41.4589    7.8250    0.0000 O   0  0  0  0  0  0  0  0  0  0  0  0
    8.7459   -7.7099    0.0000 O   0  0  0  0  0  0  0  0  0  0  0  0
   33.5307    3.3250    0.0000 O   0  0  0  0  0  0  0  0  0  0  0  0
   38.7269    5.3250    0.0000 O   0  0  0  0  0  0  0  0  0  0  0  0
    8.8653  -11.3135    0.0000 O   0  0  0  0  0  0  0  0  0  0  0  0
   34.3968    3.8250    0.0000 O   0  0  0  0  0  0  0  0  0  0  0  0
   36.1288    0.8250    0.0000 O   0  0  0  0  0  0  0  0  0  0  0  0
   39.5929    4.8250    0.0000 O   0  0  0  0  0  0  0  0  0  0  0  0
    5.2690  -11.5714    0.0000 O   0  0  0  0  0  0  0  0  0  0  0  0
    3.7827  -10.2331    0.0000 O   0  0  0  0  0  0  0  0  0  0  0  0
    4.9417   -8.9460    0.0000 O   0  0  0  0  0  0  0  0  0  0  0  0
   38.7269    3.3250    0.0000 O   0  0  0  0  0  0  0  0  0  0  0  0
   36.1288    9.8250    0.0000 O   0  0  0  0  0  0  0  0  0  0  0  0
   39.5929    3.8250    0.0000 O   0  0  0  0  0  0  0  0  0  0  0  0
    5.3884  -15.1750    0.0000 O   0  0  0  0  0  0  0  0  0  0  0  0
   37.8609   -1.1750    0.0000 O   0  0  0  0  0  0  0  0  0  0  0  0
   18.7608    1.9183    0.0000 N   0  0  0  0  0  0  0  0  0  0  0  0
   54.0327    6.7318    0.0000 N   0  0  0  0  0  0  0  0  0  0  0  0
   21.4064    2.3250    0.0000 N   0  0  0  0  0  0  0  0  0  0  0  0
   51.3871    6.3250    0.0000 N   0  0  0  0  0  0  0  0  0  0  0  0
   17.3939   -0.3470    0.0000 N   0  0  0  0  0  0  0  0  0  0  0  0
   55.3996    8.9971    0.0000 N   0  0  0  0  0  0  0  0  0  0  0  0
   48.6551    6.8250    0.0000 N   0  0  0  0  0  0  0  0  0  0  0  0
   15.2839   -1.9432    0.0000 N   0  0  0  0  0  0  0  0  0  0  0  0
   24.0045    1.8250    0.0000 N   0  0  0  0  0  0  0  0  0  0  0  0
   57.5096   10.5932    0.0000 N   0  0  0  0  0  0  0  0  0  0  0  0
   50.5211   10.8250    0.0000 N   0  0  0  0  0  0  0  0  0  0  0  0
   45.9230    6.3250    0.0000 N   0  0  0  0  0  0  0  0  0  0  0  0
   17.3054   -4.9288    0.0000 N   0  0  0  0  0  0  0  0  0  0  0  0
   26.6025    2.3250    0.0000 N   0  0  0  0  0  0  0  0  0  0  0  0
   13.9170   -4.2085    0.0000 N   0  0  0  0  0  0  0  0  0  0  0  0
   54.7450   14.2479    0.0000 N   0  0  0  0  0  0  0  0  0  0  0  0
   58.8765   12.8586    0.0000 N   0  0  0  0  0  0  0  0  0  0  0  0
   43.1910    6.8250    0.0000 N   0  0  0  0  0  0  0  0  0  0  0  0
   11.8070   -5.8047    0.0000 N   0  0  0  0  0  0  0  0  0  0  0  0
   17.8406   -6.5760    0.0000 N   0  0  0  0  0  0  0  0  0  0  0  0
   29.2006    1.8250    0.0000 N   0  0  0  0  0  0  0  0  0  0  0  0
   18.9996   -5.2889    0.0000 N   0  0  0  0  0  0  0  0  0  0  0  0
   10.4401   -8.0700    0.0000 N   0  0  0  0  0  0  0  0  0  0  0  0
   13.8285   -8.7902    0.0000 N   0  0  0  0  0  0  0  0  0  0  0  0
   60.9865   14.4547    0.0000 N   0  0  0  0  0  0  0  0  0  0  0  0
   31.7987    2.3250    0.0000 N   0  0  0  0  0  0  0  0  0  0  0  0
    8.3301   -9.6662    0.0000 N   0  0  0  0  0  0  0  0  0  0  0  0
   14.3637  -10.4375    0.0000 N   0  0  0  0  0  0  0  0  0  0  0  0
   15.5227   -9.1504    0.0000 N   0  0  0  0  0  0  0  0  0  0  0  0
   34.3968    1.8250    0.0000 N   0  0  0  0  0  0  0  0  0  0  0  0
   40.4589    6.3250    0.0000 N   0  0  0  0  0  0  0  0  0  0  0  0
    6.9632  -11.9315    0.0000 N   0  0  0  0  0  0  0  0  0  0  0  0
   36.9948    2.3250    0.0000 N   0  0  0  0  0  0  0  0  0  0  0  0
   41.3250    3.8250    0.0000 N   0  0  0  0  0  0  0  0  0  0  0  0
   39.5929    1.8250    0.0000 N   0  0  0  0  0  0  0  0  0  0  0  0
    4.8532  -13.5277    0.0000 N   0  0  0  0  0  0  0  0  0  0  0  0
    3.4863  -15.7930    0.0000 N   0  0  0  0  0  0  0  0  0  0  0  0
   36.1288   -1.1750    0.0000 N   0  0  0  0  0  0  0  0  0  0  0  0
   19.6743    2.3250    0.0000 C   0  0  1  0  0  0  0  0  0  0  0  0
   19.5698    3.3195    0.0000 C   0  0  0  0  0  0  0  0  0  0  0  0
   18.5917    3.5274    0.0000 C   0  0  0  0  0  0  0  0  0  0  0  0
   18.0917    2.6614    0.0000 C   0  0  0  0  0  0  0  0  0  0  0  0
   53.1192    6.3250    0.0000 C   0  0  1  0  0  0  0  0  0  0  0  0
   53.2237    5.3305    0.0000 C   0  0  0  0  0  0  0  0  0  0  0  0
   54.2019    5.1226    0.0000 C   0  0  0  0  0  0  0  0  0  0  0  0
   54.7019    5.9886    0.0000 C   0  0  0  0  0  0  0  0  0  0  0  0
   18.5529    0.9401    0.0000 C   0  0  0  0  0  0  0  0  0  0  0  0
   20.5404    1.8250    0.0000 C   0  0  0  0  0  0  0  0  0  0  0  0
   17.6018    0.6311    0.0000 C   0  0  2  0  0  0  0  0  0  0  0  0
   52.2532    6.8250    0.0000 C   0  0  0  0  0  0  0  0  0  0  0  0
   54.2407    7.7099    0.0000 C   0  0  0  0  0  0  0  0  0  0  0  0
   50.5211    6.8250    0.0000 C   0  0  1  0  0  0  0  0  0  0  0  0
   16.8587    1.3002    0.0000 C   0  0  0  0  0  0  0  0  0  0  0  0
   22.2724    1.8250    0.0000 C   0  0  1  0  0  0  0  0  0  0  0  0
   55.1917    8.0189    0.0000 C   0  0  0  0  0  0  0  0  0  0  0  0
   50.5211    7.8250    0.0000 C   0  0  0  0  0  0  0  0  0  0  0  0
   49.6551    8.3250    0.0000 C   0  0  0  0  0  0  0  0  0  0  0  0
   16.4429   -0.6560    0.0000 C   0  0  0  0  0  0  0  0  0  0  0  0
   49.6551    6.3250    0.0000 C   0  0  0  0  0  0  0  0  0  0  0  0
   22.2724    0.8250    0.0000 C   0  0  0  0  0  0  0  0  0  0  0  0
   16.2349   -1.6342    0.0000 C   0  0  2  0  0  0  0  0  0  0  0  0
   23.1384    2.3250    0.0000 C   0  0  0  0  0  0  0  0  0  0  0  0
   49.6551    9.3250    0.0000 C   0  0  0  0  0  0  0  0  0  0  0  0
   16.9781   -2.3033    0.0000 C   0  0  0  0  0  0  0  0  0  0  0  0
   47.7891    6.3250    0.0000 C   0  0  1  0  0  0  0  0  0  0  0  0
   56.3507    9.3061    0.0000 C   0  0  0  0  0  0  0  0  0  0  0  0
   56.5586   10.2842    0.0000 C   0  0  2  0  0  0  0  0  0  0  0  0
   16.7702   -3.2815    0.0000 C   0  0  0  0  0  0  0  0  0  0  0  0
   50.5211    9.8250    0.0000 C   0  0  0  0  0  0  0  0  0  0  0  0
   55.8154   10.9534    0.0000 C   0  0  0  0  0  0  0  0  0  0  0  0
   47.7891    5.3250    0.0000 C   0  0  0  0  0  0  0  0  0  0  0  0
   17.5133   -3.9506    0.0000 C   0  0  0  0  0  0  0  0  0  0  0  0
   24.8705    2.3250    0.0000 C   0  0  0  0  0  0  0  0  0  0  0  0
   56.0234   11.9315    0.0000 C   0  0  0  0  0  0  0  0  0  0  0  0
   46.9230    6.8250    0.0000 C   0  0  0  0  0  0  0  0  0  0  0  0
   15.0760   -2.9214    0.0000 C   0  0  0  0  0  0  0  0  0  0  0  0
   46.9230    4.8250    0.0000 C   0  0  0  0  0  0  0  0  0  0  0  0
   55.2802   12.6006    0.0000 C   0  0  0  0  0  0  0  0  0  0  0  0
   14.1249   -3.2304    0.0000 C   0  0  0  0  0  0  0  0  0  0  0  0
   25.7365    1.8250    0.0000 C   0  0  0  0  0  0  0  0  0  0  0  0
   57.7176   11.5714    0.0000 C   0  0  0  0  0  0  0  0  0  0  0  0
   45.0570    6.8250    0.0000 C   0  0  1  0  0  0  0  0  0  0  0  0
   55.4881   13.5788    0.0000 C   0  0  0  0  0  0  0  0  0  0  0  0
   46.9230    3.8250    0.0000 C   0  0  0  0  0  0  0  0  0  0  0  0
   46.0570    5.3250    0.0000 C   0  0  0  0  0  0  0  0  0  0  0  0
   58.6686   11.8804    0.0000 C   0  0  0  0  0  0  0  0  0  0  0  0
   27.4686    1.8250    0.0000 C   0  0  1  0  0  0  0  0  0  0  0  0
   45.0570    7.8250    0.0000 C   0  0  0  0  0  0  0  0  0  0  0  0
   18.0486   -5.5979    0.0000 C   0  0  0  0  0  0  0  0  0  0  0  0
   46.0570    3.3250    0.0000 C   0  0  0  0  0  0  0  0  0  0  0  0
   45.1910    4.8250    0.0000 C   0  0  0  0  0  0  0  0  0  0  0  0
   44.1910    6.3250    0.0000 C   0  0  0  0  0  0  0  0  0  0  0  0
   12.9659   -4.5175    0.0000 C   0  0  0  0  0  0  0  0  0  0  0  0
   12.7580   -5.4957    0.0000 C   0  0  2  0  0  0  0  0  0  0  0  0
   27.4686    0.8250    0.0000 C   0  0  0  0  0  0  0  0  0  0  0  0
   45.1910    3.8250    0.0000 C   0  0  0  0  0  0  0  0  0  0  0  0
   13.5012   -6.1648    0.0000 C   0  0  0  0  0  0  0  0  0  0  0  0
   28.3346    2.3250    0.0000 C   0  0  0  0  0  0  0  0  0  0  0  0
   26.6025    0.3250    0.0000 C   0  0  0  0  0  0  0  0  0  0  0  0
   13.2933   -7.1430    0.0000 C   0  0  0  0  0  0  0  0  0  0  0  0
   10.6480   -7.0919    0.0000 C   0  0  2  0  0  0  0  0  0  0  0  0
   59.8276   13.1676    0.0000 C   0  0  0  0  0  0  0  0  0  0  0  0
   11.5991   -6.7828    0.0000 C   0  0  0  0  0  0  0  0  0  0  0  0
   42.3250    6.3250    0.0000 C   0  0  0  0  0  0  0  0  0  0  0  0
    9.9049   -6.4227    0.0000 C   0  0  0  0  0  0  0  0  0  0  0  0
   30.0666    2.3250    0.0000 C   0  0  1  0  0  0  0  0  0  0  0  0
   14.0364   -7.8121    0.0000 C   0  0  0  0  0  0  0  0  0  0  0  0
   60.0355   14.1457    0.0000 C   0  0  2  0  0  0  0  0  0  0  0  0
   30.0666    3.3250    0.0000 C   0  0  0  0  0  0  0  0  0  0  0  0
    8.9538   -6.7318    0.0000 C   0  0  0  0  0  0  0  0  0  0  0  0
   10.1128   -5.4446    0.0000 C   0  0  0  0  0  0  0  0  0  0  0  0
   59.2924   14.8149    0.0000 C   0  0  0  0  0  0  0  0  0  0  0  0
   30.9327    1.8250    0.0000 C   0  0  0  0  0  0  0  0  0  0  0  0
   41.4589    6.8250    0.0000 C   0  0  0  0  0  0  0  0  0  0  0  0
    9.4890   -8.3790    0.0000 C   0  0  0  0  0  0  0  0  0  0  0  0
   25.7365   -1.1750    0.0000 C   0  0  0  0  0  0  0  0  0  0  0  0
    9.2811   -9.3572    0.0000 C   0  0  2  0  0  0  0  0  0  0  0  0
   32.6647    1.8250    0.0000 C   0  0  1  0  0  0  0  0  0  0  0  0
   14.5716   -9.4594    0.0000 C   0  0  0  0  0  0  0  0  0  0  0  0
   10.0243  -10.0263    0.0000 C   0  0  0  0  0  0  0  0  0  0  0  0
   32.6647    0.8250    0.0000 C   0  0  0  0  0  0  0  0  0  0  0  0
   33.5307    2.3250    0.0000 C   0  0  0  0  0  0  0  0  0  0  0  0
   38.7269    6.3250    0.0000 C   0  0  0  0  0  0  0  0  0  0  0  0
    8.1222  -10.6443    0.0000 C   0  0  0  0  0  0  0  0  0  0  0  0
   39.5929    6.8250    0.0000 C   0  0  2  0  0  0  0  0  0  0  0  0
    7.1711  -10.9534    0.0000 C   0  0  2  0  0  0  0  0  0  0  0  0
    6.4280  -10.2842    0.0000 C   0  0  0  0  0  0  0  0  0  0  0  0
   39.5929    7.8250    0.0000 C   0  0  0  0  0  0  0  0  0  0  0  0
   35.2628    2.3250    0.0000 C   0  0  1  0  0  0  0  0  0  0  0  0
    5.4769  -10.5932    0.0000 C   0  0  0  0  0  0  0  0  0  0  0  0
   38.7269    8.3250    0.0000 C   0  0  0  0  0  0  0  0  0  0  0  0
   35.2628    3.3250    0.0000 C   0  0  0  0  0  0  0  0  0  0  0  0
   36.1288    1.8250    0.0000 C   0  0  0  0  0  0  0  0  0  0  0  0
   40.4589    5.3250    0.0000 C   0  0  0  0  0  0  0  0  0  0  0  0
    6.0121  -12.2405    0.0000 C   0  0  0  0  0  0  0  0  0  0  0  0
   37.8609    1.8250    0.0000 C   0  0  1  0  0  0  0  0  0  0  0  0
   37.8609    7.8250    0.0000 C   0  0  0  0  0  0  0  0  0  0  0  0
   38.7269    9.3250    0.0000 C   0  0  0  0  0  0  0  0  0  0  0  0
   41.3250    4.8250    0.0000 C   0  0  0  0  0  0  0  0  0  0  0  0
    4.7338   -9.9241    0.0000 C   0  0  0  0  0  0  0  0  0  0  0  0
    5.8042  -13.2187    0.0000 C   0  0  0  0  0  0  0  0  0  0  0  0
   37.8609    0.8250    0.0000 C   0  0  0  0  0  0  0  0  0  0  0  0
   38.7269    2.3250    0.0000 C   0  0  0  0  0  0  0  0  0  0  0  0
   40.4589    2.3250    0.0000 C   0  0  2  0  0  0  0  0  0  0  0  0
   36.9948    8.3250    0.0000 C   0  0  0  0  0  0  0  0  0  0  0  0
   37.8609    9.8250    0.0000 C   0  0  0  0  0  0  0  0  0  0  0  0
   40.4589    3.3250    0.0000 C   0  0  0  0  0  0  0  0  0  0  0  0
   36.9948    0.3250    0.0000 C   0  0  0  0  0  0  0  0  0  0  0  0
   41.3250    1.8250    0.0000 C   0  0  0  0  0  0  0  0  0  0  0  0
   36.9948    9.3250    0.0000 C   0  0  0  0  0  0  0  0  0  0  0  0
    3.6942  -14.8149    0.0000 C   0  0  2  0  0  0  0  0  0  0  0  0
    4.6453  -14.5058    0.0000 C   0  0  0  0  0  0  0  0  0  0  0  0
    2.9511  -14.1457    0.0000 C   0  0  0  0  0  0  0  0  0  0  0  0
   41.3250    0.8250    0.0000 C   0  0  0  0  0  0  0  0  0  0  0  0
   36.9948   -0.6750    0.0000 C   0  0  0  0  0  0  0  0  0  0  0  0
    2.0000  -14.4547    0.0000 C   0  0  0  0  0  0  0  0  0  0  0  0
    3.1590  -13.1676    0.0000 C   0  0  0  0  0  0  0  0  0  0  0  0
   42.1910    0.3250    0.0000 C   0  0  0  0  0  0  0  0  0  0  0  0
   40.4589    0.3250    0.0000 C   0  0  0  0  0  0  0  0  0  0  0  0
   42.1910   -0.6750    0.0000 C   0  0  0  0  0  0  0  0  0  0  0  0
   40.4589   -0.6750    0.0000 C   0  0  0  0  0  0  0  0  0  0  0  0
   41.3250   -1.1750    0.0000 C   0  0  0  0  0  0  0  0  0  0  0  0
   19.6419    1.7059    0.0000 H   0  0  0  0  0  0  0  0  0  0  0  0
   20.1898    3.3195    0.0000 H   0  0  0  0  0  0  0  0  0  0  0  0
   19.6346    3.9361    0.0000 H   0  0  0  0  0  0  0  0  0  0  0  0
   18.7832    4.1171    0.0000 H   0  0  0  0  0  0  0  0  0  0  0  0
   18.0253    3.7796    0.0000 H   0  0  0  0  0  0  0  0  0  0  0  0
   17.5901    3.0258    0.0000 H   0  0  0  0  0  0  0  0  0  0  0  0
   17.6768    2.2007    0.0000 H   0  0  0  0  0  0  0  0  0  0  0  0
   53.1516    6.9442    0.0000 H   0  0  0  0  0  0  0  0  0  0  0  0
   52.6037    5.3305    0.0000 H   0  0  0  0  0  0  0  0  0  0  0  0
   53.1589    4.7139    0.0000 H   0  0  0  0  0  0  0  0  0  0  0  0
   54.0103    4.5329    0.0000 H   0  0  0  0  0  0  0  0  0  0  0  0
   54.7683    4.8704    0.0000 H   0  0  0  0  0  0  0  0  0  0  0  0
   55.2035    5.6242    0.0000 H   0  0  0  0  0  0  0  0  0  0  0  0
   55.1167    6.4494    0.0000 H   0  0  0  0  0  0  0  0  0  0  0  0
   18.0626    0.2163    0.0000 H   0  0  0  0  0  0  0  0  0  0  0  0
   21.4064    2.9450    0.0000 H   0  0  0  0  0  0  0  0  0  0  0  0
   51.3871    5.7050    0.0000 H   0  0  0  0  0  0  0  0  0  0  0  0
   50.5211    6.2050    0.0000 H   0  0  0  0  0  0  0  0  0  0  0  0
   17.3472    1.6820    0.0000 H   0  0  0  0  0  0  0  0  0  0  0  0
   16.5676    1.8477    0.0000 H   0  0  0  0  0  0  0  0  0  0  0  0
   21.7355    1.5150    0.0000 H   0  0  0  0  0  0  0  0  0  0  0  0
   17.8547   -0.7619    0.0000 H   0  0  0  0  0  0  0  0  0  0  0  0
   55.2780    7.4050    0.0000 H   0  0  0  0  0  0  0  0  0  0  0  0
   55.8113    7.9973    0.0000 H   0  0  0  0  0  0  0  0  0  0  0  0
   51.1317    7.7174    0.0000 H   0  0  0  0  0  0  0  0  0  0  0  0
   50.7332    8.4076    0.0000 H   0  0  0  0  0  0  0  0  0  0  0  0
   49.0445    8.4327    0.0000 H   0  0  0  0  0  0  0  0  0  0  0  0
   49.4430    7.7424    0.0000 H   0  0  0  0  0  0  0  0  0  0  0  0
   22.4845    0.2424    0.0000 H   0  0  0  0  0  0  0  0  0  0  0  0
   22.8830    0.9327    0.0000 H   0  0  0  0  0  0  0  0  0  0  0  0
   15.7742   -1.2193    0.0000 H   0  0  0  0  0  0  0  0  0  0  0  0
   54.9389    9.4119    0.0000 H   0  0  0  0  0  0  0  0  0  0  0  0
   49.4430    9.9076    0.0000 H   0  0  0  0  0  0  0  0  0  0  0  0
   49.0445    9.2174    0.0000 H   0  0  0  0  0  0  0  0  0  0  0  0
   17.5529   -2.5356    0.0000 H   0  0  0  0  0  0  0  0  0  0  0  0
   17.3066   -1.7775    0.0000 H   0  0  0  0  0  0  0  0  0  0  0  0
   49.1920    7.1350    0.0000 H   0  0  0  0  0  0  0  0  0  0  0  0
   15.4469    1.4061    0.0000 H   0  0  0  0  0  0  0  0  0  0  0  0
   48.3260    6.0150    0.0000 H   0  0  0  0  0  0  0  0  0  0  0  0
   57.0193    9.8694    0.0000 H   0  0  0  0  0  0  0  0  0  0  0  0
   16.1953   -3.0492    0.0000 H   0  0  0  0  0  0  0  0  0  0  0  0
   16.4416   -3.8073    0.0000 H   0  0  0  0  0  0  0  0  0  0  0  0
   14.8231   -1.5284    0.0000 H   0  0  0  0  0  0  0  0  0  0  0  0
   24.0045    1.2050    0.0000 H   0  0  0  0  0  0  0  0  0  0  0  0
   50.7332    9.2424    0.0000 H   0  0  0  0  0  0  0  0  0  0  0  0
   51.1317    9.9327    0.0000 H   0  0  0  0  0  0  0  0  0  0  0  0
   55.2406   11.1856    0.0000 H   0  0  0  0  0  0  0  0  0  0  0  0
   55.4869   10.4276    0.0000 H   0  0  0  0  0  0  0  0  0  0  0  0
   48.0011    4.7424    0.0000 H   0  0  0  0  0  0  0  0  0  0  0  0
   48.3997    5.4327    0.0000 H   0  0  0  0  0  0  0  0  0  0  0  0
   21.4064   -0.2950    0.0000 H   0  0  0  0  0  0  0  0  0  0  0  0
   18.0882   -4.1829    0.0000 H   0  0  0  0  0  0  0  0  0  0  0  0
   17.8419   -3.4248    0.0000 H   0  0  0  0  0  0  0  0  0  0  0  0
   25.2690    2.8000    0.0000 H   0  0  0  0  0  0  0  0  0  0  0  0
   24.4720    2.8000    0.0000 H   0  0  0  0  0  0  0  0  0  0  0  0
   56.5982   11.6993    0.0000 H   0  0  0  0  0  0  0  0  0  0  0  0
   56.3519   12.4573    0.0000 H   0  0  0  0  0  0  0  0  0  0  0  0
   57.9704   10.1784    0.0000 H   0  0  0  0  0  0  0  0  0  0  0  0
   54.7054   12.8329    0.0000 H   0  0  0  0  0  0  0  0  0  0  0  0
   54.9517   12.0749    0.0000 H   0  0  0  0  0  0  0  0  0  0  0  0
   51.0581   11.1350    0.0000 H   0  0  0  0  0  0  0  0  0  0  0  0
   49.9842   11.1350    0.0000 H   0  0  0  0  0  0  0  0  0  0  0  0
   14.0386   -2.6164    0.0000 H   0  0  0  0  0  0  0  0  0  0  0  0
   13.5053   -3.2087    0.0000 H   0  0  0  0  0  0  0  0  0  0  0  0
   46.4600    6.0150    0.0000 H   0  0  0  0  0  0  0  0  0  0  0  0
   16.7158   -5.1203    0.0000 H   0  0  0  0  0  0  0  0  0  0  0  0
   45.5940    7.1350    0.0000 H   0  0  0  0  0  0  0  0  0  0  0  0
   56.0630   13.3465    0.0000 H   0  0  0  0  0  0  0  0  0  0  0  0
   55.8167   14.1046    0.0000 H   0  0  0  0  0  0  0  0  0  0  0  0
   47.4600    3.5150    0.0000 H   0  0  0  0  0  0  0  0  0  0  0  0
   46.0570    5.9450    0.0000 H   0  0  0  0  0  0  0  0  0  0  0  0
   26.6025    2.9450    0.0000 H   0  0  0  0  0  0  0  0  0  0  0  0
   14.3778   -4.6234    0.0000 H   0  0  0  0  0  0  0  0  0  0  0  0
   58.7549   11.2664    0.0000 H   0  0  0  0  0  0  0  0  0  0  0  0
   59.2882   11.8588    0.0000 H   0  0  0  0  0  0  0  0  0  0  0  0
   26.9316    1.5150    0.0000 H   0  0  0  0  0  0  0  0  0  0  0  0
   45.6676    7.7174    0.0000 H   0  0  0  0  0  0  0  0  0  0  0  0
   45.2691    8.4076    0.0000 H   0  0  0  0  0  0  0  0  0  0  0  0
   46.0570    2.7050    0.0000 H   0  0  0  0  0  0  0  0  0  0  0  0
   44.6541    5.1350    0.0000 H   0  0  0  0  0  0  0  0  0  0  0  0
   12.2973   -5.0808    0.0000 H   0  0  0  0  0  0  0  0  0  0  0  0
   27.6806    0.2424    0.0000 H   0  0  0  0  0  0  0  0  0  0  0  0
   28.0791    0.9327    0.0000 H   0  0  0  0  0  0  0  0  0  0  0  0
   54.8739   14.8544    0.0000 H   0  0  0  0  0  0  0  0  0  0  0  0
   54.1553   14.0563    0.0000 H   0  0  0  0  0  0  0  0  0  0  0  0
   14.0760   -6.3971    0.0000 H   0  0  0  0  0  0  0  0  0  0  0  0
   13.8297   -5.6390    0.0000 H   0  0  0  0  0  0  0  0  0  0  0  0
   58.4158   13.2734    0.0000 H   0  0  0  0  0  0  0  0  0  0  0  0
   43.7279    7.1350    0.0000 H   0  0  0  0  0  0  0  0  0  0  0  0
   11.3462   -5.3898    0.0000 H   0  0  0  0  0  0  0  0  0  0  0  0
   26.3905    0.9076    0.0000 H   0  0  0  0  0  0  0  0  0  0  0  0
   25.9920    0.2174    0.0000 H   0  0  0  0  0  0  0  0  0  0  0  0
   12.7184   -6.9107    0.0000 H   0  0  0  0  0  0  0  0  0  0  0  0
   12.9647   -7.6688    0.0000 H   0  0  0  0  0  0  0  0  0  0  0  0
   18.3014   -6.9909    0.0000 H   0  0  0  0  0  0  0  0  0  0  0  0
   17.2510   -6.7676    0.0000 H   0  0  0  0  0  0  0  0  0  0  0  0
   44.1910    8.9450    0.0000 H   0  0  0  0  0  0  0  0  0  0  0  0
   29.2006    1.2050    0.0000 H   0  0  0  0  0  0  0  0  0  0  0  0
   19.4604   -5.7037    0.0000 H   0  0  0  0  0  0  0  0  0  0  0  0
   10.0584   -7.2835    0.0000 H   0  0  0  0  0  0  0  0  0  0  0  0
   41.9264    5.8501    0.0000 H   0  0  0  0  0  0  0  0  0  0  0  0
   42.7235    5.8501    0.0000 H   0  0  0  0  0  0  0  0  0  0  0  0
   10.4945   -6.2312    0.0000 H   0  0  0  0  0  0  0  0  0  0  0  0
   30.0666    1.7050    0.0000 H   0  0  0  0  0  0  0  0  0  0  0  0
   14.6113   -8.0444    0.0000 H   0  0  0  0  0  0  0  0  0  0  0  0
   14.3650   -7.2863    0.0000 H   0  0  0  0  0  0  0  0  0  0  0  0
   44.3250    2.7050    0.0000 H   0  0  0  0  0  0  0  0  0  0  0  0
   60.1644   14.7522    0.0000 H   0  0  0  0  0  0  0  0  0  0  0  0
   10.9008   -8.4849    0.0000 H   0  0  0  0  0  0  0  0  0  0  0  0
   30.6772    3.2174    0.0000 H   0  0  0  0  0  0  0  0  0  0  0  0
   30.2787    3.9076    0.0000 H   0  0  0  0  0  0  0  0  0  0  0  0
    8.7622   -6.1421    0.0000 H   0  0  0  0  0  0  0  0  0  0  0  0
    8.3642   -6.9234    0.0000 H   0  0  0  0  0  0  0  0  0  0  0  0
    9.1454   -7.3214    0.0000 H   0  0  0  0  0  0  0  0  0  0  0  0
   10.7192   -5.5735    0.0000 H   0  0  0  0  0  0  0  0  0  0  0  0
   10.2417   -4.8381    0.0000 H   0  0  0  0  0  0  0  0  0  0  0  0
    9.5063   -5.3157    0.0000 H   0  0  0  0  0  0  0  0  0  0  0  0
   58.7175   15.0471    0.0000 H   0  0  0  0  0  0  0  0  0  0  0  0
   58.9638   14.2891    0.0000 H   0  0  0  0  0  0  0  0  0  0  0  0
   13.2388   -8.9818    0.0000 H   0  0  0  0  0  0  0  0  0  0  0  0
   61.1155   15.0612    0.0000 H   0  0  0  0  0  0  0  0  0  0  0  0
   61.4473   14.0399    0.0000 H   0  0  0  0  0  0  0  0  0  0  0  0
   25.4265   -0.6380    0.0000 H   0  0  0  0  0  0  0  0  0  0  0  0
   25.1996   -1.4850    0.0000 H   0  0  0  0  0  0  0  0  0  0  0  0
   26.0465   -1.7119    0.0000 H   0  0  0  0  0  0  0  0  0  0  0  0
    9.1522   -9.9636    0.0000 H   0  0  0  0  0  0  0  0  0  0  0  0
   31.7987    2.9450    0.0000 H   0  0  0  0  0  0  0  0  0  0  0  0
   32.1278    1.5150    0.0000 H   0  0  0  0  0  0  0  0  0  0  0  0
   29.2006    4.4450    0.0000 H   0  0  0  0  0  0  0  0  0  0  0  0
   10.5991  -10.2586    0.0000 H   0  0  0  0  0  0  0  0  0  0  0  0
   10.3528   -9.5005    0.0000 H   0  0  0  0  0  0  0  0  0  0  0  0
   59.0395   16.2079    0.0000 H   0  0  0  0  0  0  0  0  0  0  0  0
    7.8693   -9.2513    0.0000 H   0  0  0  0  0  0  0  0  0  0  0  0
   32.8768    0.2424    0.0000 H   0  0  0  0  0  0  0  0  0  0  0  0
   33.2753    0.9327    0.0000 H   0  0  0  0  0  0  0  0  0  0  0  0
   40.1299    7.1350    0.0000 H   0  0  0  0  0  0  0  0  0  0  0  0
    6.5814  -11.1450    0.0000 H   0  0  0  0  0  0  0  0  0  0  0  0
   14.8245  -10.8524    0.0000 H   0  0  0  0  0  0  0  0  0  0  0  0
   13.7741  -10.6291    0.0000 H   0  0  0  0  0  0  0  0  0  0  0  0
   15.9835   -9.5652    0.0000 H   0  0  0  0  0  0  0  0  0  0  0  0
   34.3968    1.2050    0.0000 H   0  0  0  0  0  0  0  0  0  0  0  0
    6.9165   -9.9025    0.0000 H   0  0  0  0  0  0  0  0  0  0  0  0
    6.1369   -9.7368    0.0000 H   0  0  0  0  0  0  0  0  0  0  0  0
   40.2035    7.7174    0.0000 H   0  0  0  0  0  0  0  0  0  0  0  0
   39.8050    8.4076    0.0000 H   0  0  0  0  0  0  0  0  0  0  0  0
   10.2771  -11.4193    0.0000 H   0  0  0  0  0  0  0  0  0  0  0  0
   34.7259    2.6350    0.0000 H   0  0  0  0  0  0  0  0  0  0  0  0
   40.9959    6.6350    0.0000 H   0  0  0  0  0  0  0  0  0  0  0  0
    7.4239  -12.3464    0.0000 H   0  0  0  0  0  0  0  0  0  0  0  0
   31.7987   -0.2950    0.0000 H   0  0  0  0  0  0  0  0  0  0  0  0
    4.9883  -10.9750    0.0000 H   0  0  0  0  0  0  0  0  0  0  0  0
    5.7680  -11.1407    0.0000 H   0  0  0  0  0  0  0  0  0  0  0  0
   35.8734    3.2174    0.0000 H   0  0  0  0  0  0  0  0  0  0  0  0
   35.4748    3.9076    0.0000 H   0  0  0  0  0  0  0  0  0  0  0  0
   37.3239    1.5150    0.0000 H   0  0  0  0  0  0  0  0  0  0  0  0
   36.9948    2.9450    0.0000 H   0  0  0  0  0  0  0  0  0  0  0  0
   37.8609    7.2050    0.0000 H   0  0  0  0  0  0  0  0  0  0  0  0
   39.2638    9.6350    0.0000 H   0  0  0  0  0  0  0  0  0  0  0  0
   41.9356    4.7174    0.0000 H   0  0  0  0  0  0  0  0  0  0  0  0
   41.5370    5.4076    0.0000 H   0  0  0  0  0  0  0  0  0  0  0  0
    5.8905  -13.8326    0.0000 H   0  0  0  0  0  0  0  0  0  0  0  0
    6.4238  -13.2403    0.0000 H   0  0  0  0  0  0  0  0  0  0  0  0
   38.0729    0.2424    0.0000 H   0  0  0  0  0  0  0  0  0  0  0  0
   38.4714    0.9327    0.0000 H   0  0  0  0  0  0  0  0  0  0  0  0
   39.9220    2.6350    0.0000 H   0  0  0  0  0  0  0  0  0  0  0  0
   41.8619    3.5150    0.0000 H   0  0  0  0  0  0  0  0  0  0  0  0
   34.3968    4.4450    0.0000 H   0  0  0  0  0  0  0  0  0  0  0  0
   36.4579    8.0150    0.0000 H   0  0  0  0  0  0  0  0  0  0  0  0
   37.8609   10.4450    0.0000 H   0  0  0  0  0  0  0  0  0  0  0  0
   39.5929    1.2050    0.0000 H   0  0  0  0  0  0  0  0  0  0  0  0
   36.7828    0.9076    0.0000 H   0  0  0  0  0  0  0  0  0  0  0  0
   36.3843    0.2174    0.0000 H   0  0  0  0  0  0  0  0  0  0  0  0
    4.3924  -13.1128    0.0000 H   0  0  0  0  0  0  0  0  0  0  0  0
   41.9356    1.7174    0.0000 H   0  0  0  0  0  0  0  0  0  0  0  0
   41.5370    2.4076    0.0000 H   0  0  0  0  0  0  0  0  0  0  0  0
    3.1046  -15.0064    0.0000 H   0  0  0  0  0  0  0  0  0  0  0  0
    2.4903  -13.7309    0.0000 H   0  0  0  0  0  0  0  0  0  0  0  0
    3.3220   -9.8183    0.0000 H   0  0  0  0  0  0  0  0  0  0  0  0
    1.8084  -13.8651    0.0000 H   0  0  0  0  0  0  0  0  0  0  0  0
    1.4103  -14.6463    0.0000 H   0  0  0  0  0  0  0  0  0  0  0  0
    2.1916  -15.0444    0.0000 H   0  0  0  0  0  0  0  0  0  0  0  0
    3.7654  -13.2965    0.0000 H   0  0  0  0  0  0  0  0  0  0  0  0
    3.2879  -12.5611    0.0000 H   0  0  0  0  0  0  0  0  0  0  0  0
    2.5525  -13.0387    0.0000 H   0  0  0  0  0  0  0  0  0  0  0  0
    2.8966  -15.9846    0.0000 H   0  0  0  0  0  0  0  0  0  0  0  0
    3.9470  -16.2079    0.0000 H   0  0  0  0  0  0  0  0  0  0  0  0
   36.1288   10.4450    0.0000 H   0  0  0  0  0  0  0  0  0  0  0  0
   42.7279    0.6350    0.0000 H   0  0  0  0  0  0  0  0  0  0  0  0
   39.9220    0.6350    0.0000 H   0  0  0  0  0  0  0  0  0  0  0  0
   36.1288   -1.7950    0.0000 H   0  0  0  0  0  0  0  0  0  0  0  0
   35.5919   -0.8650    0.0000 H   0  0  0  0  0  0  0  0  0  0  0  0
   42.7279   -0.9850    0.0000 H   0  0  0  0  0  0  0  0  0  0  0  0
   39.9220   -0.9850    0.0000 H   0  0  0  0  0  0  0  0  0  0  0  0
   41.3250   -1.7950    0.0000 H   0  0  0  0  0  0  0  0  0  0  0  0
  1 97  1  0  0  0  0
  1244  1  0  0  0  0
  2132  1  0  0  0  0
  2303  1  0  0  0  0
  3143  1  0  0  0  0
  3160  1  0  0  0  0
  4153  1  0  0  0  0
  4335  1  0  0  0  0
  5156  1  0  0  0  0
  5338  1  0  0  0  0
  6164  1  0  0  0  0
  6352  1  0  0  0  0
  7165  1  0  0  0  0
  7356  1  0  0  0  0
  8 91  2  0  0  0  0
  9 92  2  0  0  0  0
 10 94  2  0  0  0  0
 11 95  2  0  0  0  0
 12104  1  0  0  0  0
 12257  1  0  0  0  0
 13102  2  0  0  0  0
 14103  2  0  0  0  0
 15106  2  0  0  0  0
 16110  2  0  0  0  0
 17119  2  0  0  0  0
 18120  2  0  0  0  0
 19124  2  0  0  0  0
 20125  2  0  0  0  0
 21136  2  0  0  0  0
 22140  1  0  0  0  0
 22313  1  0  0  0  0
 23137  2  0  0  0  0
 24142  2  0  0  0  0
 25146  2  0  0  0  0
 26147  2  0  0  0  0
 27158  1  0  0  0  0
 27167  1  0  0  0  0
 28157  2  0  0  0  0
 29158  2  0  0  0  0
 30159  2  0  0  0  0
 31166  2  0  0  0  0
 32167  2  0  0  0  0
 33168  2  0  0  0  0
 34176  1  0  0  0  0
 34373  1  0  0  0  0
 35177  2  0  0  0  0
 36178  2  0  0  0  0
 37179  2  0  0  0  0
 38184  1  0  0  0  0
 38384  1  0  0  0  0
 39184  2  0  0  0  0
 40187  2  0  0  0  0
 41194  1  0  0  0  0
 41393  1  0  0  0  0
 42191  2  0  0  0  0
 43196  2  0  0  0  0
 44199  2  0  0  0  0
 45 83  1  0  0  0  0
 45 86  1  0  0  0  0
 45 91  1  0  0  0  0
 46 87  1  0  0  0  0
 46 90  1  0  0  0  0
 46 95  1  0  0  0  0
 47 92  1  0  0  0  0
 98 47  1  6  0  0  0
 47222  1  0  0  0  0
 48 94  1  0  0  0  0
 96 48  1  6  0  0  0
 48223  1  0  0  0  0
 93 49  1  1  0  0  0
 49102  1  0  0  0  0
 49228  1  0  0  0  0
 50 99  1  0  0  0  0
 50110  1  0  0  0  0
 50238  1  0  0  0  0
 51103  1  0  0  0  0
109 51  1  1  0  0  0
 51243  1  0  0  0  0
105 52  1  6  0  0  0
 52120  1  0  0  0  0
 52249  1  0  0  0  0
 53106  1  0  0  0  0
 53117  1  0  0  0  0
 53250  1  0  0  0  0
111 54  1  6  0  0  0
 54125  1  0  0  0  0
 54264  1  0  0  0  0
 55113  1  0  0  0  0
 55267  1  0  0  0  0
 55268  1  0  0  0  0
 56119  1  0  0  0  0
126 56  1  6  0  0  0
 56271  1  0  0  0  0
 57116  1  0  0  0  0
 57133  1  0  0  0  0
 57272  1  0  0  0  0
 58124  1  0  0  0  0
131 58  1  6  0  0  0
 58278  1  0  0  0  0
 59123  1  0  0  0  0
 59137  1  0  0  0  0
 59279  1  0  0  0  0
 60127  1  0  0  0  0
 60290  1  0  0  0  0
 60291  1  0  0  0  0
 61130  1  0  0  0  0
 61146  1  0  0  0  0
 61294  1  0  0  0  0
 62136  1  0  0  0  0
 62148  1  0  0  0  0
 62295  1  0  0  0  0
138 63  1  6  0  0  0
 63147  1  0  0  0  0
 63296  1  0  0  0  0
 64133  1  0  0  0  0
 64301  1  0  0  0  0
 64302  1  0  0  0  0
 65142  1  0  0  0  0
150 65  1  1  0  0  0
 65304  1  0  0  0  0
 66133  2  0  0  0  0
 66305  1  0  0  0  0
145 67  1  1  0  0  0
 67159  1  0  0  0  0
 67315  1  0  0  0  0
 68151  1  0  0  0  0
 68163  1  0  0  0  0
 68326  1  0  0  0  0
152 69  1  6  0  0  0
 69327  1  0  0  0  0
 69328  1  0  0  0  0
 70157  1  0  0  0  0
162 70  1  6  0  0  0
 70333  1  0  0  0  0
161 71  1  6  0  0  0
 71168  1  0  0  0  0
 71339  1  0  0  0  0
 72163  1  0  0  0  0
 72344  1  0  0  0  0
 72345  1  0  0  0  0
 73163  2  0  0  0  0
 73346  1  0  0  0  0
 74166  1  0  0  0  0
173 74  1  1  0  0  0
 74347  1  0  0  0  0
169 75  1  6  0  0  0
 75178  1  0  0  0  0
 75354  1  0  0  0  0
170 76  1  1  0  0  0
 76179  1  0  0  0  0
 76355  1  0  0  0  0
 77177  1  0  0  0  0
180 77  1  6  0  0  0
 77362  1  0  0  0  0
 78183  1  0  0  0  0
 78191  1  0  0  0  0
 78372  1  0  0  0  0
 79187  1  0  0  0  0
188 79  1  6  0  0  0
 79376  1  0  0  0  0
 80185  1  0  0  0  0
 80196  1  0  0  0  0
 80379  1  0  0  0  0
195 81  1  1  0  0  0
 81391  1  0  0  0  0
 81392  1  0  0  0  0
 82199  1  0  0  0  0
 82396  1  0  0  0  0
 82397  1  0  0  0  0
 83 84  1  0  0  0  0
 83 92  1  1  0  0  0
 83207  1  0  0  0  0
 84 85  1  0  0  0  0
 84208  1  0  0  0  0
 84209  1  0  0  0  0
 85 86  1  0  0  0  0
 85210  1  0  0  0  0
 85211  1  0  0  0  0
 86212  1  0  0  0  0
 86213  1  0  0  0  0
 87 88  1  0  0  0  0
 87 94  1  1  0  0  0
 87214  1  0  0  0  0
 88 89  1  0  0  0  0
 88215  1  0  0  0  0
 88216  1  0  0  0  0
 89 90  1  0  0  0  0
 89217  1  0  0  0  0
 89218  1  0  0  0  0
 90219  1  0  0  0  0
 90220  1  0  0  0  0
 91 93  1  0  0  0  0
 93 97  1  0  0  0  0
 93221  1  0  0  0  0
 95 99  1  0  0  0  0
 96100  1  0  0  0  0
 96103  1  0  0  0  0
 96224  1  0  0  0  0
 97225  1  0  0  0  0
 97226  1  0  0  0  0
 98104  1  0  0  0  0
 98106  1  0  0  0  0
 98227  1  0  0  0  0
 99229  1  0  0  0  0
 99230  1  0  0  0  0
100101  1  0  0  0  0
100231  1  0  0  0  0
100232  1  0  0  0  0
101107  1  0  0  0  0
101233  1  0  0  0  0
101234  1  0  0  0  0
102105  1  0  0  0  0
104235  1  0  0  0  0
104236  1  0  0  0  0
105108  1  0  0  0  0
105237  1  0  0  0  0
107113  1  0  0  0  0
107239  1  0  0  0  0
107240  1  0  0  0  0
108112  1  0  0  0  0
108241  1  0  0  0  0
108242  1  0  0  0  0
109115  1  0  0  0  0
109119  1  0  0  0  0
109245  1  0  0  0  0
110111  1  0  0  0  0
111114  1  0  0  0  0
111246  1  0  0  0  0
112116  1  0  0  0  0
112247  1  0  0  0  0
112248  1  0  0  0  0
113251  1  0  0  0  0
113252  1  0  0  0  0
114118  1  0  0  0  0
114253  1  0  0  0  0
114254  1  0  0  0  0
115121  1  0  0  0  0
115255  1  0  0  0  0
115256  1  0  0  0  0
116258  1  0  0  0  0
116259  1  0  0  0  0
117124  1  0  0  0  0
117260  1  0  0  0  0
117261  1  0  0  0  0
118122  1  0  0  0  0
118262  1  0  0  0  0
118263  1  0  0  0  0
120123  1  0  0  0  0
121128  2  0  0  0  0
121129  1  0  0  0  0
122127  1  0  0  0  0
122265  1  0  0  0  0
122266  1  0  0  0  0
123269  1  0  0  0  0
123270  1  0  0  0  0
125130  1  0  0  0  0
126132  1  0  0  0  0
126136  1  0  0  0  0
126273  1  0  0  0  0
127274  1  0  0  0  0
127275  1  0  0  0  0
128134  1  0  0  0  0
128276  1  0  0  0  0
129135  2  0  0  0  0
129277  1  0  0  0  0
130280  1  0  0  0  0
130281  1  0  0  0  0
131139  1  0  0  0  0
131142  1  0  0  0  0
131282  1  0  0  0  0
132283  1  0  0  0  0
132284  1  0  0  0  0
134140  2  0  0  0  0
134285  1  0  0  0  0
135140  1  0  0  0  0
135286  1  0  0  0  0
137138  1  0  0  0  0
138141  1  0  0  0  0
138287  1  0  0  0  0
139143  1  0  0  0  0
139288  1  0  0  0  0
139289  1  0  0  0  0
141144  1  0  0  0  0
141292  1  0  0  0  0
141293  1  0  0  0  0
143297  1  0  0  0  0
143298  1  0  0  0  0
144151  1  0  0  0  0
144299  1  0  0  0  0
144300  1  0  0  0  0
145147  1  0  0  0  0
145149  1  0  0  0  0
145306  1  0  0  0  0
146152  1  0  0  0  0
148158  1  0  0  0  0
148307  1  0  0  0  0
148308  1  0  0  0  0
149154  1  0  0  0  0
149155  1  0  0  0  0
149309  1  0  0  0  0
150153  1  0  0  0  0
150157  1  0  0  0  0
150310  1  0  0  0  0
151311  1  0  0  0  0
151312  1  0  0  0  0
152156  1  0  0  0  0
152314  1  0  0  0  0
153316  1  0  0  0  0
153317  1  0  0  0  0
154318  1  0  0  0  0
154319  1  0  0  0  0
154320  1  0  0  0  0
155321  1  0  0  0  0
155322  1  0  0  0  0
155323  1  0  0  0  0
156324  1  0  0  0  0
156325  1  0  0  0  0
159161  1  0  0  0  0
160329  1  0  0  0  0
160330  1  0  0  0  0
160331  1  0  0  0  0
161164  1  0  0  0  0
161332  1  0  0  0  0
162165  1  0  0  0  0
162166  1  0  0  0  0
162334  1  0  0  0  0
164336  1  0  0  0  0
164337  1  0  0  0  0
165340  1  0  0  0  0
165341  1  0  0  0  0
167169  1  0  0  0  0
168170  1  0  0  0  0
169172  1  0  0  0  0
169342  1  0  0  0  0
170171  1  0  0  0  0
170343  1  0  0  0  0
171174  1  0  0  0  0
171348  1  0  0  0  0
171349  1  0  0  0  0
172175  1  0  0  0  0
172350  1  0  0  0  0
172351  1  0  0  0  0
173176  1  0  0  0  0
173177  1  0  0  0  0
173353  1  0  0  0  0
174184  1  0  0  0  0
174357  1  0  0  0  0
174358  1  0  0  0  0
175181  2  0  0  0  0
175182  1  0  0  0  0
176359  1  0  0  0  0
176360  1  0  0  0  0
178183  1  0  0  0  0
179185  1  0  0  0  0
180186  1  0  0  0  0
180187  1  0  0  0  0
180361  1  0  0  0  0
181189  1  0  0  0  0
181363  1  0  0  0  0
182190  2  0  0  0  0
182364  1  0  0  0  0
183365  1  0  0  0  0
183366  1  0  0  0  0
185367  1  0  0  0  0
185368  1  0  0  0  0
186192  1  0  0  0  0
186369  1  0  0  0  0
186370  1  0  0  0  0
188191  1  0  0  0  0
188193  1  0  0  0  0
188371  1  0  0  0  0
189194  2  0  0  0  0
189374  1  0  0  0  0
190194  1  0  0  0  0
190375  1  0  0  0  0
192199  1  0  0  0  0
192377  1  0  0  0  0
192378  1  0  0  0  0
193198  1  0  0  0  0
193380  1  0  0  0  0
193381  1  0  0  0  0
195196  1  0  0  0  0
195197  1  0  0  0  0
195382  1  0  0  0  0
197200  1  0  0  0  0
197201  1  0  0  0  0
197383  1  0  0  0  0
198202  2  0  0  0  0
198203  1  0  0  0  0
200385  1  0  0  0  0
200386  1  0  0  0  0
200387  1  0  0  0  0
201388  1  0  0  0  0
201389  1  0  0  0  0
201390  1  0  0  0  0
202204  1  0  0  0  0
202394  1  0  0  0  0
203205  2  0  0  0  0
203395  1  0  0  0  0
204206  2  0  0  0  0
204398  1  0  0  0  0
205206  1  0  0  0  0
205399  1  0  0  0  0
206400  1  0  0  0  0
M  END
> <PUBCHEM_COMPOUND_CID>
16132245

> <PUBCHEM_COMPOUND_CANONICALIZED>
1

> <PUBCHEM_CACTVS_COMPLEXITY>
6600

> <PUBCHEM_CACTVS_HBOND_ACCEPTOR>
50

> <PUBCHEM_CACTVS_HBOND_DONOR>
47

> <PUBCHEM_CACTVS_ROTATABLE_BOND>
99

> <PUBCHEM_CACTVS_SUBSKEYS>
AAADcfB//gBwAAAAAAAAAAAAAAAAAWLAAAAwYMAAAAAAAAABUAAAHgQQCAAADSzl2AazDoPABgyoAiHSOAACAACgIBAJiIGOCIiKdjaimTOXcAAm9hOYmAe836KOIAAAAAAAAABAAAAAAAAAAAAAAAAAAA==

> <PUBCHEM_IUPAC_OPENEYE_NAME>
(4S)-5-[[(1R)-2-[[(1S)-1-[[(1S)-1-[[2-[[(1S)-1-[[(1R)-2-[(2S)-2-[[(1S)-2-[[2-[[(1S)-1-[[(1R)-2-[[(1R)-2-[[(1S)-2-[[(1S)-4-amino-1-[[(1S)-2-[[2-[[(1S)-2-[2-[[(2R)-2-[[(2S)-2-[[(2S)-6-amino-2-[[(2S)-1-[2-[[(2S)-6-amino-2-[[2-[[(2R)-2-amino-3-sulfanyl-propanoyl]amino]acetyl]amino]hexanoyl]amino]acetyl]pyrrolidine-2-carbonyl]amino]hexanoyl]amino]-3-(4-hydroxyphenyl)propanoyl]amino]-3-sulfanyl-propanoyl]amino]acetyl]oxy-1-[(4-hydroxyphenyl)methyl]-2-oxo-ethyl]amino]-2-oxo-ethyl]amino]-1-benzyl-2-oxo-ethyl]carbamoyl]-4-oxo-butyl]amino]-1-(hydroxymethyl)-2-oxo-ethyl]amino]-2-oxo-1-(sulfanylmethyl)ethyl]amino]-2-oxo-1-(sulfanylmethyl)ethyl]carbamoyl]-3-methylsulfanyl-propyl]amino]-2-oxo-ethyl]amino]-1-(hydroxymethyl)-2-oxo-ethyl]carbamoyl]pyrrolidin-1-yl]-2-oxo-1-(sulfanylmethyl)ethyl]carbamoyl]-4-guanidino-butyl]amino]-2-oxo-ethyl]carbamoyl]-4-guanidino-butyl]carbamoyl]-2-methyl-propyl]amino]-2-oxo-1-(sulfanylmethyl)ethyl]amino]-4-[[2-[[(2S)-2-amino-3-methyl-butanoyl]amino]acetyl]amino]-5-oxo-pentanoic acid

> <PUBCHEM_IUPAC_CAS_NAME>
(4S)-5-[[(2R)-1-[[(2S)-1-[[(2S)-1-[[2-[[(2S)-1-[[(2R)-1-[(2S)-2-[[[(2S)-1-[[2-[[(2S)-1-[[(2R)-1-[[(2R)-1-[[(2S)-1-[[(2S)-5-amino-1-[[(2S)-1-[[2-[[(2S)-1-[2-[[(2R)-2-[[(2S)-2-[[(2S)-6-amino-2-[[[(2S)-1-[2-[[(2S)-6-amino-2-[[2-[[(2R)-2-amino-3-mercapto-1-oxopropyl]amino]-1-oxoethyl]amino]-1-oxohexyl]amino]-1-oxoethyl]-2-pyrrolidinyl]-oxomethyl]amino]-1-oxohexyl]amino]-3-(4-hydroxyphenyl)-1-oxopropyl]amino]-3-mercapto-1-oxopropyl]amino]-1-oxoethoxy]-3-(4-hydroxyphenyl)-1-oxopropan-2-yl]amino]-2-oxoethyl]amino]-1-oxo-3-phenylpropan-2-yl]amino]-1,5-dioxopentan-2-yl]amino]-3-hydroxy-1-oxopropan-2-yl]amino]-3-mercapto-1-oxopropan-2-yl]amino]-3-mercapto-1-oxopropan-2-yl]amino]-4-(methylthio)-1-oxobutan-2-yl]amino]-2-oxoethyl]amino]-3-hydroxy-1-oxopropan-2-yl]amino]-oxomethyl]-1-pyrrolidinyl]-3-mercapto-1-oxopropan-2-yl]amino]-5-carbamimidamido-1-oxopentan-2-yl]amino]-2-oxoethyl]amino]-5-carbamimidamido-1-oxopentan-2-yl]amino]-3-methyl-1-oxobutan-2-yl]amino]-3-mercapto-1-oxopropan-2-yl]amino]-4-[[2-[[(2S)-2-amino-3-methyl-1-oxobutyl]amino]-1-oxoethyl]amino]-5-oxopentanoic acid

> <PUBCHEM_IUPAC_NAME_MARKUP>
(4<I>S</I>)-5-[[(2<I>R</I>)-1-[[(2<I>S</I>)-1-[[(2<I>S</I>)-1-[[2-[[(2<I>S</I>)-1-[[(2<I>R</I>)-1-[(2<I>S</I>)-2-[[(2<I>S</I>)-1-[[2-[[(2<I>S</I>)-1-[[(2<I>R</I>)-1-[[(2<I>R</I>)-1-[[(2<I>S</I>)-1-[[(2<I>S</I>)-5-amino-1-[[(2<I>S</I>)-1-[[2-[[(2<I>S</I>)-1-[2-[[(2<I>R</I>)-2-[[(2<I>S</I>)-2-[[(2<I>S</I>)-6-amino-2-[[(2<I>S</I>)-1-[2-[[(2<I>S</I>)-6-amino-2-[[2-[[(2<I>R</I>)-2-amino-3-sulfanylpropanoyl]amino]acetyl]amino]hexanoyl]amino]acetyl]pyrrolidine-2-carbonyl]amino]hexanoyl]amino]-3-(4-hydroxyphenyl)propanoyl]amino]-3-sulfanylpropanoyl]amino]acetyl]oxy-3-(4-hydroxyphenyl)-1-oxopropan-2-yl]amino]-2-oxoethyl]amino]-1-oxo-3-phenylpropan-2-yl]amino]-1,5-dioxopentan-2-yl]amino]-3-hydroxy-1-oxopropan-2-yl]amino]-1-oxo-3-sulfanylpropan-2-yl]amino]-1-oxo-3-sulfanylpropan-2-yl]amino]-4-methylsulfanyl-1-oxobutan-2-yl]amino]-2-oxoethyl]amino]-3-hydroxy-1-oxopropan-2-yl]carbamoyl]pyrrolidin-1-yl]-1-oxo-3-sulfanylpropan-2-yl]amino]-5-carbamimidamido-1-oxopentan-2-yl]amino]-2-oxoethyl]amino]-5-carbamimidamido-1-oxopentan-2-yl]amino]-3-methyl-1-oxobutan-2-yl]amino]-1-oxo-3-sulfanylpropan-2-yl]amino]-4-[[2-[[(2<I>S</I>)-2-amino-3-methylbutanoyl]amino]acetyl]amino]-5-oxopentanoic acid

> <PUBCHEM_IUPAC_NAME>
(4S)-5-[[(2R)-1-[[(2S)-1-[[(2S)-1-[[2-[[(2S)-1-[[(2R)-1-[(2S)-2-[[(2S)-1-[[2-[[(2S)-1-[[(2R)-1-[[(2R)-1-[[(2S)-1-[[(2S)-5-amino-1-[[(2S)-1-[[2-[[(2S)-1-[2-[[(2R)-2-[[(2S)-2-[[(2S)-6-amino-2-[[(2S)-1-[2-[[(2S)-6-amino-2-[[2-[[(2R)-2-amino-3-sulfanylpropanoyl]amino]acetyl]amino]hexanoyl]amino]acetyl]pyrrolidine-2-carbonyl]amino]hexanoyl]amino]-3-(4-hydroxyphenyl)propanoyl]amino]-3-sulfanylpropanoyl]amino]acetyl]oxy-3-(4-hydroxyphenyl)-1-oxopropan-2-yl]amino]-2-oxoethyl]amino]-1-oxo-3-phenylpropan-2-yl]amino]-1,5-dioxopentan-2-yl]amino]-3-hydroxy-1-oxopropan-2-yl]amino]-1-oxo-3-sulfanylpropan-2-yl]amino]-1-oxo-3-sulfanylpropan-2-yl]amino]-4-methylsulfanyl-1-oxobutan-2-yl]amino]-2-oxoethyl]amino]-3-hydroxy-1-oxopropan-2-yl]carbamoyl]pyrrolidin-1-yl]-1-oxo-3-sulfanylpropan-2-yl]amino]-5-carbamimidamido-1-oxopentan-2-yl]amino]-2-oxoethyl]amino]-5-carbamimidamido-1-oxopentan-2-yl]amino]-3-methyl-1-oxobutan-2-yl]amino]-1-oxo-3-sulfanylpropan-2-yl]amino]-4-[[2-[[(2S)-2-amino-3-methylbutanoyl]amino]acetyl]amino]-5-oxopentanoic acid

> <PUBCHEM_IUPAC_SYSTEMATIC_NAME>
(4S)-5-[[(2R)-1-[[(2S)-1-[[(2S)-1-[[2-[[(2S)-1-[[(2R)-1-[(2S)-2-[[(2S)-1-[[2-[[(2S)-1-[[(2R)-1-[[(2R)-1-[[(2S)-1-[[(2S)-5-azanyl-1-[[(2S)-1-[[2-[[(2S)-1-[2-[[(2R)-2-[[(2S)-2-[[(2S)-6-azanyl-2-[[(2S)-1-[2-[[(2S)-6-azanyl-2-[2-[[(2R)-2-azanyl-3-sulfanyl-propanoyl]amino]ethanoylamino]hexanoyl]amino]ethanoyl]pyrrolidin-2-yl]carbonylamino]hexanoyl]amino]-3-(4-hydroxyphenyl)propanoyl]amino]-3-sulfanyl-propanoyl]amino]ethanoyloxy]-3-(4-hydroxyphenyl)-1-oxidanylidene-propan-2-yl]amino]-2-oxidanylidene-ethyl]amino]-1-oxidanylidene-3-phenyl-propan-2-yl]amino]-1,5-bis(oxidanylidene)pentan-2-yl]amino]-3-oxidanyl-1-oxidanylidene-propan-2-yl]amino]-1-oxidanylidene-3-sulfanyl-propan-2-yl]amino]-1-oxidanylidene-3-sulfanyl-propan-2-yl]amino]-4-methylsulfanyl-1-oxidanylidene-butan-2-yl]amino]-2-oxidanylidene-ethyl]amino]-3-oxidanyl-1-oxidanylidene-propan-2-yl]carbamoyl]pyrrolidin-1-yl]-1-oxidanylidene-3-sulfanyl-propan-2-yl]amino]-5-carbamimidamido-1-oxidanylidene-pentan-2-yl]amino]-2-oxidanylidene-ethyl]amino]-5-carbamimidamido-1-oxidanylidene-pentan-2-yl]amino]-3-methyl-1-oxidanylidene-butan-2-yl]amino]-1-oxidanylidene-3-sulfanyl-propan-2-yl]amino]-4-[2-[[(2S)-2-azanyl-3-methyl-butanoyl]amino]ethanoylamino]-5-oxidanylidene-pentanoic acid

> <PUBCHEM_IUPAC_TRADITIONAL_NAME>
(4S)-5-[[(1R)-2-[[(1S)-1-[[(1S)-1-[[2-[[(1S)-1-[[(1R)-2-[(2S)-2-[[(1S)-2-[[2-[[(1S)-1-[[(1R)-2-[[(1R)-2-[[(1S)-2-[[(1S)-4-amino-1-[[(1S)-2-[[2-[[(1S)-2-[2-[[(2R)-2-[[(2S)-2-[[(2S)-6-amino-2-[[(2S)-1-[2-[[(2S)-6-amino-2-[[2-[[(2R)-2-amino-3-mercapto-propanoyl]amino]acetyl]amino]hexanoyl]amino]acetyl]prolyl]amino]hexanoyl]amino]-3-(4-hydroxyphenyl)propanoyl]amino]-3-mercapto-propanoyl]amino]acetyl]oxy-1-(4-hydroxybenzyl)-2-keto-ethyl]amino]-2-keto-ethyl]amino]-1-benzyl-2-keto-ethyl]carbamoyl]-4-keto-butyl]amino]-2-keto-1-methylol-ethyl]amino]-2-keto-1-(mercaptomethyl)ethyl]amino]-2-keto-1-(mercaptomethyl)ethyl]carbamoyl]-3-(methylthio)propyl]amino]-2-keto-ethyl]amino]-2-keto-1-methylol-ethyl]carbamoyl]pyrrolidino]-2-keto-1-(mercaptomethyl)ethyl]carbamoyl]-4-guanidino-butyl]amino]-2-keto-ethyl]carbamoyl]-4-guanidino-butyl]carbamoyl]-2-methyl-propyl]amino]-2-keto-1-(mercaptomethyl)ethyl]amino]-4-[[2-[[(2S)-2-amino-3-methyl-butanoyl]amino]acetyl]amino]-5-keto-valeric acid

> <PUBCHEM_IUPAC_INCHI>
InChI=1S/C124H194N38O37S7/c1-63(2)99(129)119(195)140-52-94(171)145-75(34-36-97(174)175)109(185)157-86(61-204)116(192)160-100(64(3)4)120(196)150-72(21-13-40-134-123(130)131)103(179)137-49-92(169)144-73(22-14-41-135-124(132)133)107(183)159-87(62-205)121(197)162-43-16-24-89(162)118(194)154-81(55-163)105(181)139-50-93(170)146-77(37-44-206-5)111(187)156-85(60-203)115(191)158-84(59-202)114(190)153-82(56-164)113(189)148-76(33-35-90(128)167)110(186)151-78(45-65-17-7-6-8-18-65)104(180)138-51-95(172)147-80(47-67-27-31-69(166)32-28-67)122(198)199-98(176)54-142-106(182)83(58-201)155-112(188)79(46-66-25-29-68(165)30-26-66)152-108(184)74(20-10-12-39-126)149-117(193)88-23-15-42-161(88)96(173)53-141-102(178)71(19-9-11-38-125)143-91(168)48-136-101(177)70(127)57-200/h6-8,17-18,25-32,63-64,70-89,99-100,163-166,200-205H,9-16,19-24,33-62,125-127,129H2,1-5H3,(H2,128,167)(H,136,177)(H,137,179)(H,138,180)(H,139,181)(H,140,195)(H,141,178)(H,142,182)(H,143,168)(H,144,169)(H,145,171)(H,146,170)(H,147,172)(H,148,189)(H,149,193)(H,150,196)(H,151,186)(H,152,184)(H,153,190)(H,154,194)(H,155,188)(H,156,187)(H,157,185)(H,158,191)(H,159,183)(H,160,192)(H,174,175)(H4,130,131,134)(H4,132,133,135)/t70-,71-,72-,73-,74-,75-,76-,77-,78-,79-,80-,81-,82-,83-,84-,85-,86-,87-,88-,89-,99-,100-/m0/s1

> <PUBCHEM_IUPAC_INCHIKEY>
CRLBLVQWYMUDAS-FBMKYRQTSA-N

> <PUBCHEM_XLOGP3_AA>
-12.2

> <PUBCHEM_EXACT_MASS>
3032.254562

> <PUBCHEM_MOLECULAR_FORMULA>
C124H194N38O37S7

> <PUBCHEM_MOLECULAR_WEIGHT>
3033.6

> <PUBCHEM_OPENEYE_CAN_SMILES>
CC(C)C(C(=O)NCC(=O)NC(CCC(=O)O)C(=O)NC(CS)C(=O)NC(C(C)C)C(=O)NC(CCCNC(=N)N)C(=O)NCC(=O)NC(CCCNC(=N)N)C(=O)NC(CS)C(=O)N1CCCC1C(=O)NC(CO)C(=O)NCC(=O)NC(CCSC)C(=O)NC(CS)C(=O)NC(CS)C(=O)NC(CO)C(=O)NC(CCC(=O)N)C(=O)NC(CC2=CC=CC=C2)C(=O)NCC(=O)NC(CC3=CC=C(C=C3)O)C(=O)OC(=O)CNC(=O)C(CS)NC(=O)C(CC4=CC=C(C=C4)O)NC(=O)C(CCCCN)NC(=O)C5CCCN5C(=O)CNC(=O)C(CCCCN)NC(=O)CNC(=O)C(CS)N)N

> <PUBCHEM_OPENEYE_ISO_SMILES>
CC(C)[C@@H](C(=O)NCC(=O)N[C@@H](CCC(=O)O)C(=O)N[C@@H](CS)C(=O)N[C@@H](C(C)C)C(=O)N[C@@H](CCCNC(=N)N)C(=O)NCC(=O)N[C@@H](CCCNC(=N)N)C(=O)N[C@@H](CS)C(=O)N1CCC[C@H]1C(=O)N[C@@H](CO)C(=O)NCC(=O)N[C@@H](CCSC)C(=O)N[C@@H](CS)C(=O)N[C@@H](CS)C(=O)N[C@@H](CO)C(=O)N[C@@H](CCC(=O)N)C(=O)N[C@@H](CC2=CC=CC=C2)C(=O)NCC(=O)N[C@@H](CC3=CC=C(C=C3)O)C(=O)OC(=O)CNC(=O)[C@H](CS)NC(=O)[C@H](CC4=CC=C(C=C4)O)NC(=O)[C@H](CCCCN)NC(=O)[C@@H]5CCCN5C(=O)CNC(=O)[C@H](CCCCN)NC(=O)CNC(=O)[C@H](CS)N)N

> <PUBCHEM_CACTVS_TPSA>
1230

> <PUBCHEM_MONOISOTOPIC_WEIGHT>
3031.251208

> <PUBCHEM_TOTAL_CHARGE>
0

> <PUBCHEM_HEAVY_ATOM_COUNT>
206

> <PUBCHEM_ATOM_DEF_STEREO_COUNT>
22

> <PUBCHEM_ATOM_UDEF_STEREO_COUNT>
0

> <PUBCHEM_BOND_DEF_STEREO_COUNT>
0

> <PUBCHEM_BOND_UDEF_STEREO_COUNT>
0

> <PUBCHEM_ISOTOPIC_ATOM_COUNT>
0

> <PUBCHEM_COMPONENT_COUNT>
1

> <PUBCHEM_CACTVS_TAUTO_COUNT>
-1

> <PUBCHEM_COORDINATE_TYPE>
1
5
255

> <PUBCHEM_BONDANNOTATIONS>
121  128  8
121  129  8
128  134  8
129  135  8
134  140  8
135  140  8
175  181  8
175  182  8
181  189  8
182  190  8
189  194  8
190  194  8
198  202  8
198  203  8
202  204  8
203  205  8
204  206  8
205  206  8
98  47  6
96  48  6
93  49  5
109  51  5
105  52  6
111  54  6
126  56  6
131  58  6
138  63  6
150  65  5
145  67  5
152  69  6
162  70  6
161  71  6
173  74  5
169  75  6
170  76  5
180  77  6
188  79  6
195  81  5
83  92  5
87  94  5

$$$$
15559331
  -OEChem-04052116402D

 33 35  0     0  0  0  0  0  0999 V2000
    9.0602    0.8608    0.0000 Cl  0  0  0  0  0  0  0  0  0  0  0  0
    5.5301    1.8367    0.0000 O   0  0  0  0  0  0  0  0  0  0  0  0
    5.5301   -2.1633    0.0000 O   0  0  0  0  0  0  0  0  0  0  0  0
    3.7817    1.8713    0.0000 O   0  0  0  0  0  0  0  0  0  0  0  0
    9.0602   -1.1875    0.0000 O   0  0  0  0  0  0  0  0  0  0  0  0
    7.2785    1.8713    0.0000 O   0  0  0  0  0  0  0  0  0  0  0  0
    4.6641   -0.6633    0.0000 C   0  0  0  0  0  0  0  0  0  0  0  0
    4.6641    0.3367    0.0000 C   0  0  0  0  0  0  0  0  0  0  0  0
    6.3961    0.3367    0.0000 C   0  0  0  0  0  0  0  0  0  0  0  0
    6.3961   -0.6633    0.0000 C   0  0  0  0  0  0  0  0  0  0  0  0
    5.5301    0.8367    0.0000 C   0  0  0  0  0  0  0  0  0  0  0  0
    5.5301   -1.1633    0.0000 C   0  0  0  0  0  0  0  0  0  0  0  0
    3.7702   -1.1980    0.0000 C   0  0  0  0  0  0  0  0  0  0  0  0
    3.7702    0.8713    0.0000 C   0  0  0  0  0  0  0  0  0  0  0  0
    7.2901    0.8713    0.0000 C   0  0  0  0  0  0  0  0  0  0  0  0
    7.2901   -1.1980    0.0000 C   0  0  0  0  0  0  0  0  0  0  0  0
    2.8641   -0.6841    0.0000 C   0  0  0  0  0  0  0  0  0  0  0  0
    2.8641    0.3575    0.0000 C   0  0  0  0  0  0  0  0  0  0  0  0
    8.1962   -0.6841    0.0000 C   0  0  0  0  0  0  0  0  0  0  0  0
    8.1962    0.3575    0.0000 C   0  0  0  0  0  0  0  0  0  0  0  0
    2.0000   -1.1875    0.0000 C   0  0  0  0  0  0  0  0  0  0  0  0
    9.0564   -2.1875    0.0000 C   0  0  0  0  0  0  0  0  0  0  0  0
    3.7773   -1.8179    0.0000 H   0  0  0  0  0  0  0  0  0  0  0  0
    7.2829   -1.8179    0.0000 H   0  0  0  0  0  0  0  0  0  0  0  0
    2.3284    0.6696    0.0000 H   0  0  0  0  0  0  0  0  0  0  0  0
    1.6879   -0.6517    0.0000 H   0  0  0  0  0  0  0  0  0  0  0  0
    1.4643   -1.4995    0.0000 H   0  0  0  0  0  0  0  0  0  0  0  0
    2.3121   -1.7232    0.0000 H   0  0  0  0  0  0  0  0  0  0  0  0
    3.2484    2.1875    0.0000 H   0  0  0  0  0  0  0  0  0  0  0  0
    7.8118    2.1875    0.0000 H   0  0  0  0  0  0  0  0  0  0  0  0
    8.4364   -2.1851    0.0000 H   0  0  0  0  0  0  0  0  0  0  0  0
    9.0540   -2.8075    0.0000 H   0  0  0  0  0  0  0  0  0  0  0  0
    9.6764   -2.1898    0.0000 H   0  0  0  0  0  0  0  0  0  0  0  0
  1 20  1  0  0  0  0
  2 11  2  0  0  0  0
  3 12  2  0  0  0  0
  4 14  1  0  0  0  0
  4 29  1  0  0  0  0
  5 19  1  0  0  0  0
  5 22  1  0  0  0  0
  6 15  1  0  0  0  0
  6 30  1  0  0  0  0
  7  8  2  0  0  0  0
  7 12  1  0  0  0  0
  7 13  1  0  0  0  0
  8 11  1  0  0  0  0
  8 14  1  0  0  0  0
  9 10  1  0  0  0  0
  9 11  1  0  0  0  0
  9 15  2  0  0  0  0
 10 12  1  0  0  0  0
 10 16  2  0  0  0  0
 13 17  2  0  0  0  0
 13 23  1  0  0  0  0
 14 18  2  0  0  0  0
 15 20  1  0  0  0  0
 16 19  1  0  0  0  0
 16 24  1  0  0  0  0
 17 18  1  0  0  0  0
 17 21  1  0  0  0  0
 18 25  1  0  0  0  0
 19 20  2  0  0  0  0
 21 26  1  0  0  0  0
 21 27  1  0  0  0  0
 21 28  1  0  0  0  0
 22 31  1  0  0  0  0
 22 32  1  0  0  0  0
 22 33  1  0  0  0  0
M  END
> <PUBCHEM_COMPOUND_CID>
15559331

> <PUBCHEM_COMPOUND_CANONICALIZED>
1

> <PUBCHEM_CACTVS_COMPLEXITY>
481

> <PUBCHEM_CACTVS_HBOND_ACCEPTOR>
5

> <PUBCHEM_CACTVS_HBOND_DONOR>
2

> <PUBCHEM_CACTVS_ROTATABLE_BOND>
1

> <PUBCHEM_CACTVS_SUBSKEYS>
AAADccB4OAAEAAAAAAAAAAAAAAAAAAAAAAAwYMAAAAAAAADBQAAAGgIACAAADAaAmCIyBoAABgCIAqBSAAACCAAkJEAAiAEGC8gMJzeHNxqAcWAl4BUIuYeL7PzO5AADKAAYCADIAAZQADAQAAAAAAAAAA==

> <PUBCHEM_IUPAC_OPENEYE_NAME>
2-chloro-1,8-dihydroxy-3-methoxy-6-methyl-anthracene-9,10-dione

> <PUBCHEM_IUPAC_CAS_NAME>
2-chloro-1,8-dihydroxy-3-methoxy-6-methylanthracene-9,10-dione

> <PUBCHEM_IUPAC_NAME_MARKUP>
2-chloro-1,8-dihydroxy-3-methoxy-6-methylanthracene-9,10-dione

> <PUBCHEM_IUPAC_NAME>
2-chloro-1,8-dihydroxy-3-methoxy-6-methylanthracene-9,10-dione

> <PUBCHEM_IUPAC_SYSTEMATIC_NAME>
2-chloranyl-3-methoxy-6-methyl-1,8-bis(oxidanyl)anthracene-9,10-dione

> <PUBCHEM_IUPAC_TRADITIONAL_NAME>
2-chloro-1,8-dihydroxy-3-methoxy-6-methyl-9,10-anthraquinone

> <PUBCHEM_IUPAC_INCHI>
InChI=1S/C16H11ClO5/c1-6-3-7-11(9(18)4-6)15(20)12-8(14(7)19)5-10(22-2)13(17)16(12)21/h3-5,18,21H,1-2H3

> <PUBCHEM_IUPAC_INCHIKEY>
RTBAOFRCWWQFHB-UHFFFAOYSA-N

> <PUBCHEM_XLOGP3_AA>
3.7

> <PUBCHEM_EXACT_MASS>
318.029501

> <PUBCHEM_MOLECULAR_FORMULA>
C16H11ClO5

> <PUBCHEM_MOLECULAR_WEIGHT>
318.71

> <PUBCHEM_OPENEYE_CAN_SMILES>
CC1=CC2=C(C(=C1)O)C(=O)C3=C(C(=C(C=C3C2=O)OC)Cl)O

> <PUBCHEM_OPENEYE_ISO_SMILES>
CC1=CC2=C(C(=C1)O)C(=O)C3=C(C(=C(C=C3C2=O)OC)Cl)O

> <PUBCHEM_CACTVS_TPSA>
83.8

> <PUBCHEM_MONOISOTOPIC_WEIGHT>
318.029501

> <PUBCHEM_TOTAL_CHARGE>
0

> <PUBCHEM_HEAVY_ATOM_COUNT>
22

> <PUBCHEM_ATOM_DEF_STEREO_COUNT>
0

> <PUBCHEM_ATOM_UDEF_STEREO_COUNT>
0

> <PUBCHEM_BOND_DEF_STEREO_COUNT>
0

> <PUBCHEM_BOND_UDEF_STEREO_COUNT>
0

> <PUBCHEM_ISOTOPIC_ATOM_COUNT>
0

> <PUBCHEM_COMPONENT_COUNT>
1

> <PUBCHEM_CACTVS_TAUTO_COUNT>
-1

> <PUBCHEM_COORDINATE_TYPE>
1
5
255

> <PUBCHEM_BONDANNOTATIONS>
10  16  8
13  17  8
14  18  8
15  20  8
16  19  8
17  18  8
19  20  8
7  13  8
7  8  8
8  14  8
9  10  8
9  15  8

$$$$
12303662
  -OEChem-04052116402D

 80 83  0     1  0  0  0  0  0999 V2000
    2.5357   -3.6598    0.0000 O   0  0  0  0  0  0  0  0  0  0  0  0
    7.9288   -0.6074    0.0000 C   0  0  1  0  0  0  0  0  0  0  0  0
    7.9288   -1.6074    0.0000 C   0  0  3  0  0  0  0  0  0  0  0  0
    7.0628   -2.1074    0.0000 C   0  0  1  0  0  0  0  0  0  0  0  0
    6.1968   -1.6074    0.0000 C   0  0  1  0  0  0  0  0  0  0  0  0
    8.8750   -0.3027    0.0000 C   0  0  2  0  0  0  0  0  0  0  0  0
    7.0628   -0.1074    0.0000 C   0  0  0  0  0  0  0  0  0  0  0  0
    5.2868   -2.1143    0.0000 C   0  0  2  0  0  0  0  0  0  0  0  0
    8.8750   -1.9122    0.0000 C   0  0  0  0  0  0  0  0  0  0  0  0
    6.1968   -0.6074    0.0000 C   0  0  0  0  0  0  0  0  0  0  0  0
    9.4586   -1.1074    0.0000 C   0  0  0  0  0  0  0  0  0  0  0  0
    7.0789   -3.1489    0.0000 C   0  0  0  0  0  0  0  0  0  0  0  0
    9.1857    0.6478    0.0000 C   0  0  1  0  0  0  0  0  0  0  0  0
    7.9288    0.3926    0.0000 C   0  0  0  0  0  0  0  0  0  0  0  0
    5.2787   -3.1559    0.0000 C   0  0  0  0  0  0  0  0  0  0  0  0
    4.3599   -1.5502    0.0000 C   0  0  0  0  0  0  0  0  0  0  0  0
    6.1808   -3.6767    0.0000 C   0  0  0  0  0  0  0  0  0  0  0  0
    5.2945   -1.1143    0.0000 C   0  0  0  0  0  0  0  0  0  0  0  0
    4.3433   -3.7056    0.0000 C   0  0  0  0  0  0  0  0  0  0  0  0
   10.1642    0.8540    0.0000 C   0  0  0  0  0  0  0  0  0  0  0  0
    3.4120   -2.0781    0.0000 C   0  0  0  0  0  0  0  0  0  0  0  0
    3.4037   -3.1631    0.0000 C   0  0  2  0  0  0  0  0  0  0  0  0
    8.5179    1.3921    0.0000 C   0  0  0  0  0  0  0  0  0  0  0  0
   10.4749    1.8046    0.0000 C   0  0  0  0  0  0  0  0  0  0  0  0
   11.4534    2.0108    0.0000 C   0  0  2  0  0  0  0  0  0  0  0  0
   11.7640    2.9613    0.0000 C   0  0  0  0  0  0  0  0  0  0  0  0
   12.1212    1.2665    0.0000 C   0  0  0  0  0  0  0  0  0  0  0  0
   12.7425    3.1675    0.0000 C   0  0  0  0  0  0  0  0  0  0  0  0
   11.0962    3.7056    0.0000 C   0  0  0  0  0  0  0  0  0  0  0  0
   13.0997    1.4727    0.0000 C   0  0  0  0  0  0  0  0  0  0  0  0
    7.9944   -2.2240    0.0000 H   0  0  0  0  0  0  0  0  0  0  0  0
    7.8022   -2.5267    0.0000 H   0  0  0  0  0  0  0  0  0  0  0  0
    6.9329   -1.1824    0.0000 H   0  0  0  0  0  0  0  0  0  0  0  0
    9.7148   -0.1708    0.0000 H   0  0  0  0  0  0  0  0  0  0  0  0
    7.4613    0.3675    0.0000 H   0  0  0  0  0  0  0  0  0  0  0  0
    6.6643    0.3675    0.0000 H   0  0  0  0  0  0  0  0  0  0  0  0
    8.6240   -2.4791    0.0000 H   0  0  0  0  0  0  0  0  0  0  0  0
    9.4124   -2.2214    0.0000 H   0  0  0  0  0  0  0  0  0  0  0  0
    5.9847   -0.0248    0.0000 H   0  0  0  0  0  0  0  0  0  0  0  0
    5.5862   -0.7151    0.0000 H   0  0  0  0  0  0  0  0  0  0  0  0
    9.9195   -1.5222    0.0000 H   0  0  0  0  0  0  0  0  0  0  0  0
    9.9195   -0.6927    0.0000 H   0  0  0  0  0  0  0  0  0  0  0  0
    7.2969   -3.7293    0.0000 H   0  0  0  0  0  0  0  0  0  0  0  0
    7.6880   -3.0334    0.0000 H   0  0  0  0  0  0  0  0  0  0  0  0
    9.3783    1.2371    0.0000 H   0  0  0  0  0  0  0  0  0  0  0  0
    8.5488    0.3926    0.0000 H   0  0  0  0  0  0  0  0  0  0  0  0
    7.9288    1.0126    0.0000 H   0  0  0  0  0  0  0  0  0  0  0  0
    7.3088    0.3926    0.0000 H   0  0  0  0  0  0  0  0  0  0  0  0
    4.7681   -1.0835    0.0000 H   0  0  0  0  0  0  0  0  0  0  0  0
    3.9700   -1.0682    0.0000 H   0  0  0  0  0  0  0  0  0  0  0  0
    6.1832   -4.2967    0.0000 H   0  0  0  0  0  0  0  0  0  0  0  0
    5.9145   -1.1191    0.0000 H   0  0  0  0  0  0  0  0  0  0  0  0
    5.2993   -0.4943    0.0000 H   0  0  0  0  0  0  0  0  0  0  0  0
    4.6745   -1.1095    0.0000 H   0  0  0  0  0  0  0  0  0  0  0  0
    3.9460   -4.1816    0.0000 H   0  0  0  0  0  0  0  0  0  0  0  0
    4.7443   -4.1785    0.0000 H   0  0  0  0  0  0  0  0  0  0  0  0
   10.1848    0.2344    0.0000 H   0  0  0  0  0  0  0  0  0  0  0  0
   10.7780    0.7667    0.0000 H   0  0  0  0  0  0  0  0  0  0  0  0
    3.2075   -1.4929    0.0000 H   0  0  0  0  0  0  0  0  0  0  0  0
    2.8004   -2.1795    0.0000 H   0  0  0  0  0  0  0  0  0  0  0  0
    3.4025   -3.7831    0.0000 H   0  0  0  0  0  0  0  0  0  0  0  0
    8.9793    1.8062    0.0000 H   0  0  0  0  0  0  0  0  0  0  0  0
    8.1038    1.8536    0.0000 H   0  0  0  0  0  0  0  0  0  0  0  0
    8.0564    0.9781    0.0000 H   0  0  0  0  0  0  0  0  0  0  0  0
   10.4543    2.4242    0.0000 H   0  0  0  0  0  0  0  0  0  0  0  0
    9.8611    1.8919    0.0000 H   0  0  0  0  0  0  0  0  0  0  0  0
   11.8674    1.5493    0.0000 H   0  0  0  0  0  0  0  0  0  0  0  0
    2.0000   -3.3477    0.0000 H   0  0  0  0  0  0  0  0  0  0  0  0
   11.9567    3.5506    0.0000 H   0  0  0  0  0  0  0  0  0  0  0  0
   11.5949    0.9388    0.0000 H   0  0  0  0  0  0  0  0  0  0  0  0
   12.3525    0.6912    0.0000 H   0  0  0  0  0  0  0  0  0  0  0  0
   12.8704    2.5608    0.0000 H   0  0  0  0  0  0  0  0  0  0  0  0
   13.3492    3.2954    0.0000 H   0  0  0  0  0  0  0  0  0  0  0  0
   12.6147    3.7742    0.0000 H   0  0  0  0  0  0  0  0  0  0  0  0
   11.5577    4.1197    0.0000 H   0  0  0  0  0  0  0  0  0  0  0  0
   10.6821    4.1671    0.0000 H   0  0  0  0  0  0  0  0  0  0  0  0
   10.6347    3.2915    0.0000 H   0  0  0  0  0  0  0  0  0  0  0  0
   13.2276    0.8660    0.0000 H   0  0  0  0  0  0  0  0  0  0  0  0
   13.7064    1.6006    0.0000 H   0  0  0  0  0  0  0  0  0  0  0  0
   12.9719    2.0794    0.0000 H   0  0  0  0  0  0  0  0  0  0  0  0
 22  1  1  1  0  0  0
  1 68  1  0  0  0  0
  2  3  1  0  0  0  0
  2  6  1  0  0  0  0
  2  7  1  0  0  0  0
  2 14  1  1  0  0  0
  3  4  1  0  0  0  0
  3  9  1  0  0  0  0
  3 31  1  0  0  0  0
  4  5  1  0  0  0  0
  4 12  1  0  0  0  0
  4 32  1  1  0  0  0
  5  8  1  0  0  0  0
  5 10  1  0  0  0  0
  5 33  1  6  0  0  0
  6 11  1  0  0  0  0
  6 13  1  0  0  0  0
  6 34  1  6  0  0  0
  7 10  1  0  0  0  0
  7 35  1  0  0  0  0
  7 36  1  0  0  0  0
  8 15  1  0  0  0  0
  8 16  1  0  0  0  0
  8 18  1  1  0  0  0
  9 11  1  0  0  0  0
  9 37  1  0  0  0  0
  9 38  1  0  0  0  0
 10 39  1  0  0  0  0
 10 40  1  0  0  0  0
 11 41  1  0  0  0  0
 11 42  1  0  0  0  0
 12 17  1  0  0  0  0
 12 43  1  0  0  0  0
 12 44  1  0  0  0  0
 13 20  1  0  0  0  0
 13 23  1  6  0  0  0
 13 45  1  0  0  0  0
 14 46  1  0  0  0  0
 14 47  1  0  0  0  0
 14 48  1  0  0  0  0
 15 17  2  0  0  0  0
 15 19  1  0  0  0  0
 16 21  1  0  0  0  0
 16 49  1  0  0  0  0
 16 50  1  0  0  0  0
 17 51  1  0  0  0  0
 18 52  1  0  0  0  0
 18 53  1  0  0  0  0
 18 54  1  0  0  0  0
 19 22  1  0  0  0  0
 19 55  1  0  0  0  0
 19 56  1  0  0  0  0
 20 24  1  0  0  0  0
 20 57  1  0  0  0  0
 20 58  1  0  0  0  0
 21 22  1  0  0  0  0
 21 59  1  0  0  0  0
 21 60  1  0  0  0  0
 22 61  1  0  0  0  0
 23 62  1  0  0  0  0
 23 63  1  0  0  0  0
 23 64  1  0  0  0  0
 25 24  1  6  0  0  0
 24 65  1  0  0  0  0
 24 66  1  0  0  0  0
 25 26  1  0  0  0  0
 25 27  1  0  0  0  0
 25 67  1  0  0  0  0
 26 28  1  0  0  0  0
 26 29  1  0  0  0  0
 26 69  1  0  0  0  0
 27 30  1  0  0  0  0
 27 70  1  0  0  0  0
 27 71  1  0  0  0  0
 28 72  1  0  0  0  0
 28 73  1  0  0  0  0
 28 74  1  0  0  0  0
 29 75  1  0  0  0  0
 29 76  1  0  0  0  0
 29 77  1  0  0  0  0
 30 78  1  0  0  0  0
 30 79  1  0  0  0  0
 30 80  1  0  0  0  0
M  END
> <PUBCHEM_COMPOUND_CID>
12303662

> <PUBCHEM_COMPOUND_CANONICALIZED>
1

> <PUBCHEM_CACTVS_COMPLEXITY>
634

> <PUBCHEM_CACTVS_HBOND_ACCEPTOR>
1

> <PUBCHEM_CACTVS_HBOND_DONOR>
1

> <PUBCHEM_CACTVS_ROTATABLE_BOND>
6

> <PUBCHEM_CACTVS_SUBSKEYS>
AAADcfB4IAAAAAAAAAAAAAAAAAAAAYAAAAAwYIAAAAAAAGCAAAAAGgAACAAADxSggAICAAAAAgCAAiBCAAAAAAAgAAAACAAAAAgAEAIAAQAAQAAEwAAIAAOAwPAPgAAAAAAAAADAAAQAACAAAQAACAAAAA==

> <PUBCHEM_IUPAC_OPENEYE_NAME>
(3S,8S,9S,10R,13R,17R)-17-[(1R,4R)-4-ethyl-1,5-dimethyl-hexyl]-10,13-dimethyl-2,3,4,7,8,9,11,12,14,15,16,17-dodecahydro-1H-cyclopenta[a]phenanthren-3-ol

> <PUBCHEM_IUPAC_CAS_NAME>
(3S,8S,9S,10R,13R,17R)-17-[(2R,5R)-5-ethyl-6-methylheptan-2-yl]-10,13-dimethyl-2,3,4,7,8,9,11,12,14,15,16,17-dodecahydro-1H-cyclopenta[a]phenanthren-3-ol

> <PUBCHEM_IUPAC_NAME_MARKUP>
(3<I>S</I>,8<I>S</I>,9<I>S</I>,10<I>R</I>,13<I>R</I>,17<I>R</I>)-17-[(2<I>R</I>,5<I>R</I>)-5-ethyl-6-methylheptan-2-yl]-10,13-dimethyl-2,3,4,7,8,9,11,12,14,15,16,17-dodecahydro-1<I>H</I>-cyclopenta[a]phenanthren-3-ol

> <PUBCHEM_IUPAC_NAME>
(3S,8S,9S,10R,13R,17R)-17-[(2R,5R)-5-ethyl-6-methylheptan-2-yl]-10,13-dimethyl-2,3,4,7,8,9,11,12,14,15,16,17-dodecahydro-1H-cyclopenta[a]phenanthren-3-ol

> <PUBCHEM_IUPAC_SYSTEMATIC_NAME>
(3S,8S,9S,10R,13R,17R)-17-[(2R,5R)-5-ethyl-6-methyl-heptan-2-yl]-10,13-dimethyl-2,3,4,7,8,9,11,12,14,15,16,17-dodecahydro-1H-cyclopenta[a]phenanthren-3-ol

> <PUBCHEM_IUPAC_TRADITIONAL_NAME>
(3S,8S,9S,10R,13R,17R)-17-[(1R,4R)-4-ethyl-1,5-dimethyl-hexyl]-10,13-dimethyl-2,3,4,7,8,9,11,12,14,15,16,17-dodecahydro-1H-cyclopenta[a]phenanthren-3-ol

> <PUBCHEM_IUPAC_INCHI>
InChI=1S/C29H50O/c1-7-21(19(2)3)9-8-20(4)25-12-13-26-24-11-10-22-18-23(30)14-16-28(22,5)27(24)15-17-29(25,26)6/h10,19-21,23-27,30H,7-9,11-18H2,1-6H3/t20-,21-,23+,24+,25-,26?,27+,28+,29-/m1/s1

> <PUBCHEM_IUPAC_INCHIKEY>
KZJWDPNRJALLNS-ICLVQLPZSA-N

> <PUBCHEM_XLOGP3_AA>
9.3

> <PUBCHEM_EXACT_MASS>
414.386166

> <PUBCHEM_MOLECULAR_FORMULA>
C29H50O

> <PUBCHEM_MOLECULAR_WEIGHT>
414.7

> <PUBCHEM_OPENEYE_CAN_SMILES>
CCC(CCC(C)C1CCC2C1(CCC3C2CC=C4C3(CCC(C4)O)C)C)C(C)C

> <PUBCHEM_OPENEYE_ISO_SMILES>
CC[C@H](CC[C@@H](C)[C@H]1CCC2[C@@]1(CC[C@H]3[C@H]2CC=C4[C@@]3(CC[C@@H](C4)O)C)C)C(C)C

> <PUBCHEM_CACTVS_TPSA>
20.2

> <PUBCHEM_MONOISOTOPIC_WEIGHT>
414.386166

> <PUBCHEM_TOTAL_CHARGE>
0

> <PUBCHEM_HEAVY_ATOM_COUNT>
30

> <PUBCHEM_ATOM_DEF_STEREO_COUNT>
8

> <PUBCHEM_ATOM_UDEF_STEREO_COUNT>
1

> <PUBCHEM_BOND_DEF_STEREO_COUNT>
0

> <PUBCHEM_BOND_UDEF_STEREO_COUNT>
0

> <PUBCHEM_ISOTOPIC_ATOM_COUNT>
0

> <PUBCHEM_COMPONENT_COUNT>
1

> <PUBCHEM_CACTVS_TAUTO_COUNT>
-1

> <PUBCHEM_COORDINATE_TYPE>
1
5
255

> <PUBCHEM_BONDANNOTATIONS>
22  1  5
13  23  6
2  14  5
25  24  6
3  9  3
4  32  5
5  33  6
6  34  6
8  18  5

$$$$
11979471
  -OEChem-04052116402D

288306  0     1  0  0  0  0  0999 V2000
   26.5500   11.2742    0.0000 O   0  0  0  0  0  0  0  0  0  0  0  0
   23.0102   11.2606    0.0000 O   0  0  0  0  0  0  0  0  0  0  0  0
   11.1827   17.3160    0.0000 O   0  0  0  0  0  0  0  0  0  0  0  0
    7.6428   17.3023    0.0000 O   0  0  0  0  0  0  0  0  0  0  0  0
   22.1496    6.6945    0.0000 O   0  0  0  0  0  0  0  0  0  0  0  0
   24.7761   12.2984    0.0000 O   0  0  0  0  0  0  0  0  0  0  0  0
    9.4088   18.3401    0.0000 O   0  0  0  0  0  0  0  0  0  0  0  0
   20.3678    7.7050    0.0000 O   0  0  0  0  0  0  0  0  0  0  0  0
   20.3678    9.7533    0.0000 O   0  0  0  0  0  0  0  0  0  0  0  0
    5.0005   13.7467    0.0000 O   0  0  0  0  0  0  0  0  0  0  0  0
    5.0005   15.7950    0.0000 O   0  0  0  0  0  0  0  0  0  0  0  0
   20.8691   23.5833    0.0000 O   0  0  0  0  0  0  0  0  0  0  0  0
    6.7441   10.7534    0.0000 O   0  0  0  0  0  0  0  0  0  0  0  0
    5.0159    9.7468    0.0000 O   0  0  0  0  0  0  0  0  0  0  0  0
    0.7072    9.1686    0.0000 O   0  0  0  0  0  0  0  0  0  0  0  0
    4.1709    9.2220    0.0000 O   0  0  0  0  0  0  0  0  0  0  0  0
    2.4545    8.1954    0.0000 O   0  0  0  0  0  0  0  0  0  0  0  0
   19.6480   22.3574    0.0000 O   0  0  0  0  0  0  0  0  0  0  0  0
   22.5657   25.5095    0.0000 O   0  0  0  0  0  0  0  0  0  0  0  0
   20.8337   24.5095    0.0000 O   0  0  0  0  0  0  0  0  0  0  0  0
   15.2284    3.6200    0.0000 O   0  0  0  0  0  0  0  0  0  0  0  0
   15.2284    1.6200    0.0000 O   0  0  0  0  0  0  0  0  0  0  0  0
   19.9054   17.8279    0.0000 O   0  0  0  0  0  0  0  0  0  0  0  0
   21.4549   16.4830    0.0000 O   0  0  0  0  0  0  0  0  0  0  0  0
   25.6222    7.7322    0.0000 N   0  0  3  0  0  0  0  0  0  0  0  0
   10.2549   13.7740    0.0000 N   0  0  3  0  0  0  0  0  0  0  0  0
    1.5022   12.7506    0.0000 N   0  0  3  0  0  0  0  0  0  0  0  0
   19.6264    3.1408    0.0000 N   0  0  3  0  0  0  0  0  0  0  0  0
   23.4477   20.9402    0.0000 N   0  0  3  0  0  0  0  0  0  0  0  0
   17.5759   21.2975    0.0000 N   0  0  3  0  0  0  0  0  0  0  0  0
   24.7640    8.2291    0.0000 C   0  0  3  0  0  0  0  0  0  0  0  0
    9.3967   14.2709    0.0000 C   0  0  3  0  0  0  0  0  0  0  0  0
   24.7640    9.2291    0.0000 C   0  0  0  0  0  0  0  0  0  0  0  0
   23.8980    7.7291    0.0000 C   0  0  0  0  0  0  0  0  0  0  0  0
    9.3967   15.2709    0.0000 C   0  0  0  0  0  0  0  0  0  0  0  0
   25.6740    9.7360    0.0000 C   0  0  0  0  0  0  0  0  0  0  0  0
   26.4877    8.2164    0.0000 C   0  0  0  0  0  0  0  0  0  0  0  0
   23.8980    9.7291    0.0000 C   0  0  0  0  0  0  0  0  0  0  0  0
    8.5306   13.7709    0.0000 C   0  0  0  0  0  0  0  0  0  0  0  0
   26.5133    9.2077    0.0000 C   0  0  0  0  0  0  0  0  0  0  0  0
   10.3067   15.7777    0.0000 C   0  0  0  0  0  0  0  0  0  0  0  0
   23.0319    8.2291    0.0000 C   0  0  0  0  0  0  0  0  0  0  0  0
   11.1204   14.2581    0.0000 C   0  0  0  0  0  0  0  0  0  0  0  0
    8.5306   15.7709    0.0000 C   0  0  0  0  0  0  0  0  0  0  0  0
   23.0319    9.2291    0.0000 C   0  0  0  0  0  0  0  0  0  0  0  0
   11.1460   15.2495    0.0000 C   0  0  0  0  0  0  0  0  0  0  0  0
    7.6646   14.2709    0.0000 C   0  0  0  0  0  0  0  0  0  0  0  0
    7.6646   15.2709    0.0000 C   0  0  0  0  0  0  0  0  0  0  0  0
   25.6820   10.7776    0.0000 C   0  0  0  0  0  0  0  0  0  0  0  0
   23.8819   10.7706    0.0000 C   0  0  0  0  0  0  0  0  0  0  0  0
   25.6148    6.7322    0.0000 C   0  0  0  0  0  0  0  0  0  0  0  0
   10.3147   16.8193    0.0000 C   0  0  0  0  0  0  0  0  0  0  0  0
    8.5146   16.8124    0.0000 C   0  0  0  0  0  0  0  0  0  0  0  0
   24.7799   11.2984    0.0000 C   0  0  0  0  0  0  0  0  0  0  0  0
   22.1380    7.6944    0.0000 C   0  0  0  0  0  0  0  0  0  0  0  0
   10.2475   12.7740    0.0000 C   0  0  0  0  0  0  0  0  0  0  0  0
   22.1380    9.7638    0.0000 C   0  0  0  0  0  0  0  0  0  0  0  0
    9.4126   17.3401    0.0000 C   0  0  0  0  0  0  0  0  0  0  0  0
    6.7707   13.7362    0.0000 C   0  0  0  0  0  0  0  0  0  0  0  0
    6.7707   15.8055    0.0000 C   0  0  0  0  0  0  0  0  0  0  0  0
   21.2319    8.2083    0.0000 C   0  0  0  0  0  0  0  0  0  0  0  0
   21.2319    9.2499    0.0000 C   0  0  0  0  0  0  0  0  0  0  0  0
    5.8646   14.2501    0.0000 C   0  0  0  0  0  0  0  0  0  0  0  0
    5.8646   15.2917    0.0000 C   0  0  0  0  0  0  0  0  0  0  0  0
   26.5538   12.2742    0.0000 C   0  0  0  0  0  0  0  0  0  0  0  0
   22.9986   12.2605    0.0000 C   0  0  0  0  0  0  0  0  0  0  0  0
   21.2894    6.1845    0.0000 C   0  0  0  0  0  0  0  0  0  0  0  0
   11.1865   18.3160    0.0000 C   0  0  0  0  0  0  0  0  0  0  0  0
    7.6313   18.3023    0.0000 C   0  0  0  0  0  0  0  0  0  0  0  0
   25.6402   12.8017    0.0000 C   0  0  0  0  0  0  0  0  0  0  0  0
    2.4082   12.2367    0.0000 C   0  0  1  0  0  0  0  0  0  0  0  0
   10.2729   18.8435    0.0000 C   0  0  0  0  0  0  0  0  0  0  0  0
    5.0044   12.7467    0.0000 C   0  0  0  0  0  0  0  0  0  0  0  0
    3.2723   12.7401    0.0000 C   0  0  0  0  0  0  0  0  0  0  0  0
    4.1403   12.2434    0.0000 C   0  0  0  0  0  0  0  0  0  0  0  0
    2.4082   11.1951    0.0000 C   0  0  0  0  0  0  0  0  0  0  0  0
   19.4999    8.2016    0.0000 C   0  0  0  0  0  0  0  0  0  0  0  0
   18.7204    3.6547    0.0000 C   0  0  1  0  0  0  0  0  0  0  0  0
   20.3717   10.7533    0.0000 C   0  0  0  0  0  0  0  0  0  0  0  0
    0.6082   12.2159    0.0000 C   0  0  0  0  0  0  0  0  0  0  0  0
   20.4176    6.6745    0.0000 C   0  0  0  0  0  0  0  0  0  0  0  0
   21.3009    5.1846    0.0000 C   0  0  0  0  0  0  0  0  0  0  0  0
   18.7088    4.6546    0.0000 C   0  0  0  0  0  0  0  0  0  0  0  0
    1.5500   10.6818    0.0000 C   0  0  0  0  0  0  0  0  0  0  0  0
    0.6323   11.1746    0.0000 C   0  0  0  0  0  0  0  0  0  0  0  0
   19.5690    5.1646    0.0000 C   0  0  0  0  0  0  0  0  0  0  0  0
    5.0044   16.7950    0.0000 C   0  0  0  0  0  0  0  0  0  0  0  0
   22.5497   21.4680    0.0000 C   0  0  2  0  0  0  0  0  0  0  0  0
   17.8264    3.1200    0.0000 C   0  0  0  0  0  0  0  0  0  0  0  0
    5.8723   12.2501    0.0000 C   0  0  0  0  0  0  0  0  0  0  0  0
   19.5574    6.1645    0.0000 C   0  0  0  0  0  0  0  0  0  0  0  0
   20.4407    4.6746    0.0000 C   0  0  0  0  0  0  0  0  0  0  0  0
   16.7255   21.8305    0.0000 C   0  0  3  0  0  0  0  0  0  0  0  0
   22.5657   22.5095    0.0000 C   0  0  0  0  0  0  0  0  0  0  0  0
   19.6264    2.0992    0.0000 C   0  0  0  0  0  0  0  0  0  0  0  0
    4.1441   11.2434    0.0000 C   0  0  0  0  0  0  0  0  0  0  0  0
   18.7204    1.5853    0.0000 C   0  0  0  0  0  0  0  0  0  0  0  0
   17.8264    2.1200    0.0000 C   0  0  0  0  0  0  0  0  0  0  0  0
   24.3498   21.4610    0.0000 C   0  0  0  0  0  0  0  0  0  0  0  0
   23.4317   23.0095    0.0000 C   0  0  0  0  0  0  0  0  0  0  0  0
   24.3417   22.5026    0.0000 C   0  0  0  0  0  0  0  0  0  0  0  0
    1.4906   13.7505    0.0000 C   0  0  0  0  0  0  0  0  0  0  0  0
    3.2819   10.7085    0.0000 C   0  0  0  0  0  0  0  0  0  0  0  0
   17.2102   22.7161    0.0000 C   0  0  0  0  0  0  0  0  0  0  0  0
   22.5916   20.4593    0.0000 C   0  0  0  0  0  0  0  0  0  0  0  0
   17.9590   23.3931    0.0000 C   0  0  0  0  0  0  0  0  0  0  0  0
   18.4943   21.7023    0.0000 C   0  0  0  0  0  0  0  0  0  0  0  0
    1.5654    9.6819    0.0000 C   0  0  0  0  0  0  0  0  0  0  0  0
   18.6748   22.6896    0.0000 C   0  0  0  0  0  0  0  0  0  0  0  0
    5.8762   11.2501    0.0000 C   0  0  0  0  0  0  0  0  0  0  0  0
    5.0121   10.7468    0.0000 C   0  0  0  0  0  0  0  0  0  0  0  0
   16.5587   20.8349    0.0000 C   0  0  0  0  0  0  0  0  0  0  0  0
   21.6997   23.0095    0.0000 C   0  0  0  0  0  0  0  0  0  0  0  0
   20.4905    3.6442    0.0000 C   0  0  0  0  0  0  0  0  0  0  0  0
    3.2973    9.7086    0.0000 C   0  0  0  0  0  0  0  0  0  0  0  0
   16.9604    3.6200    0.0000 C   0  0  0  0  0  0  0  0  0  0  0  0
    2.4391    9.1953    0.0000 C   0  0  0  0  0  0  0  0  0  0  0  0
   23.4438   19.9402    0.0000 C   0  0  0  0  0  0  0  0  0  0  0  0
   23.4317   24.0095    0.0000 C   0  0  0  0  0  0  0  0  0  0  0  0
   18.8887   23.7864    0.0000 C   0  0  0  0  0  0  0  0  0  0  0  0
   16.9604    1.6200    0.0000 C   0  0  0  0  0  0  0  0  0  0  0  0
   18.2055   22.8212    0.0000 C   0  0  0  0  0  0  0  0  0  0  0  0
   22.2997   19.4930    0.0000 C   0  0  0  0  0  0  0  0  0  0  0  0
   19.8961   23.8522    0.0000 C   0  0  0  0  0  0  0  0  0  0  0  0
   21.6997   24.0095    0.0000 C   0  0  0  0  0  0  0  0  0  0  0  0
   17.5036   20.3002    0.0000 C   0  0  0  0  0  0  0  0  0  0  0  0
   19.1274   23.2112    0.0000 C   0  0  0  0  0  0  0  0  0  0  0  0
   22.5657   24.5095    0.0000 C   0  0  0  0  0  0  0  0  0  0  0  0
   16.7285   19.8398    0.0000 C   0  0  0  0  0  0  0  0  0  0  0  0
   16.0944    3.1200    0.0000 C   0  0  0  0  0  0  0  0  0  0  0  0
   16.0944    2.1200    0.0000 C   0  0  0  0  0  0  0  0  0  0  0  0
   21.7064   18.6762    0.0000 C   0  0  0  0  0  0  0  0  0  0  0  0
   22.9203   18.7042    0.0000 C   0  0  0  0  0  0  0  0  0  0  0  0
   17.6354   19.4161    0.0000 C   0  0  0  0  0  0  0  0  0  0  0  0
   17.2160   18.9557    0.0000 C   0  0  0  0  0  0  0  0  0  0  0  0
   20.8776   18.0998    0.0000 C   0  0  0  0  0  0  0  0  0  0  0  0
   22.6158   17.7478    0.0000 C   0  0  0  0  0  0  0  0  0  0  0  0
   18.8979   17.8906    0.0000 C   0  0  0  0  0  0  0  0  0  0  0  0
   21.6534   17.4631    0.0000 C   0  0  0  0  0  0  0  0  0  0  0  0
   18.3799   18.7471    0.0000 C   0  0  0  0  0  0  0  0  0  0  0  0
   17.9669   18.2810    0.0000 C   0  0  0  0  0  0  0  0  0  0  0  0
    7.6082   11.2568    0.0000 C   0  0  0  0  0  0  0  0  0  0  0  0
    5.8839    9.2501    0.0000 C   0  0  0  0  0  0  0  0  0  0  0  0
    4.1863    8.2222    0.0000 C   0  0  0  0  0  0  0  0  0  0  0  0
    3.3281    7.7089    0.0000 C   0  0  0  0  0  0  0  0  0  0  0  0
   20.6478   22.3814    0.0000 C   0  0  0  0  0  0  0  0  0  0  0  0
   23.4317   26.0095    0.0000 C   0  0  0  0  0  0  0  0  0  0  0  0
   14.3623    3.1200    0.0000 C   0  0  0  0  0  0  0  0  0  0  0  0
   15.2284    0.6200    0.0000 C   0  0  0  0  0  0  0  0  0  0  0  0
   22.2045   15.8211    0.0000 C   0  0  0  0  0  0  0  0  0  0  0  0
   24.7636    7.6091    0.0000 H   0  0  0  0  0  0  0  0  0  0  0  0
    9.3963   13.6509    0.0000 H   0  0  0  0  0  0  0  0  0  0  0  0
   23.4994    7.2542    0.0000 H   0  0  0  0  0  0  0  0  0  0  0  0
   24.2965    7.2542    0.0000 H   0  0  0  0  0  0  0  0  0  0  0  0
   26.6894    7.6301    0.0000 H   0  0  0  0  0  0  0  0  0  0  0  0
   27.1005    8.3107    0.0000 H   0  0  0  0  0  0  0  0  0  0  0  0
    8.1321   13.2959    0.0000 H   0  0  0  0  0  0  0  0  0  0  0  0
    8.9292   13.2959    0.0000 H   0  0  0  0  0  0  0  0  0  0  0  0
   27.1204    9.0818    0.0000 H   0  0  0  0  0  0  0  0  0  0  0  0
   26.7451    9.7828    0.0000 H   0  0  0  0  0  0  0  0  0  0  0  0
   11.3221   13.6719    0.0000 H   0  0  0  0  0  0  0  0  0  0  0  0
   11.7331   14.3525    0.0000 H   0  0  0  0  0  0  0  0  0  0  0  0
   11.7531   15.1236    0.0000 H   0  0  0  0  0  0  0  0  0  0  0  0
   11.3777   15.8246    0.0000 H   0  0  0  0  0  0  0  0  0  0  0  0
   24.9948    6.7368    0.0000 H   0  0  0  0  0  0  0  0  0  0  0  0
   25.6102    6.1122    0.0000 H   0  0  0  0  0  0  0  0  0  0  0  0
   26.2348    6.7276    0.0000 H   0  0  0  0  0  0  0  0  0  0  0  0
    9.6275   12.7786    0.0000 H   0  0  0  0  0  0  0  0  0  0  0  0
   10.2429   12.1540    0.0000 H   0  0  0  0  0  0  0  0  0  0  0  0
   10.8675   12.7694    0.0000 H   0  0  0  0  0  0  0  0  0  0  0  0
   22.1452   10.3837    0.0000 H   0  0  0  0  0  0  0  0  0  0  0  0
    6.7778   13.1163    0.0000 H   0  0  0  0  0  0  0  0  0  0  0  0
    6.7778   16.4255    0.0000 H   0  0  0  0  0  0  0  0  0  0  0  0
   27.1738   12.2718    0.0000 H   0  0  0  0  0  0  0  0  0  0  0  0
   26.5562   12.8942    0.0000 H   0  0  0  0  0  0  0  0  0  0  0  0
   25.9338   12.2766    0.0000 H   0  0  0  0  0  0  0  0  0  0  0  0
   23.6185   12.2677    0.0000 H   0  0  0  0  0  0  0  0  0  0  0  0
   22.9914   12.8805    0.0000 H   0  0  0  0  0  0  0  0  0  0  0  0
   22.3786   12.2533    0.0000 H   0  0  0  0  0  0  0  0  0  0  0  0
   11.8065   18.3136    0.0000 H   0  0  0  0  0  0  0  0  0  0  0  0
   11.1889   18.9360    0.0000 H   0  0  0  0  0  0  0  0  0  0  0  0
   10.5665   18.3184    0.0000 H   0  0  0  0  0  0  0  0  0  0  0  0
    8.2512   18.3094    0.0000 H   0  0  0  0  0  0  0  0  0  0  0  0
    7.6241   18.9222    0.0000 H   0  0  0  0  0  0  0  0  0  0  0  0
    7.0113   18.2951    0.0000 H   0  0  0  0  0  0  0  0  0  0  0  0
   25.9522   12.2660    0.0000 H   0  0  0  0  0  0  0  0  0  0  0  0
   26.1759   13.1138    0.0000 H   0  0  0  0  0  0  0  0  0  0  0  0
   25.3281   13.3374    0.0000 H   0  0  0  0  0  0  0  0  0  0  0  0
    2.4047   12.8567    0.0000 H   0  0  0  0  0  0  0  0  0  0  0  0
   10.5849   18.3077    0.0000 H   0  0  0  0  0  0  0  0  0  0  0  0
   10.8086   19.1555    0.0000 H   0  0  0  0  0  0  0  0  0  0  0  0
    9.9608   19.3792    0.0000 H   0  0  0  0  0  0  0  0  0  0  0  0
    3.6690   13.2165    0.0000 H   0  0  0  0  0  0  0  0  0  0  0  0
    2.8720   13.2135    0.0000 H   0  0  0  0  0  0  0  0  0  0  0  0
   19.2543    3.9698    0.0000 H   0  0  0  0  0  0  0  0  0  0  0  0
   19.8078    8.7398    0.0000 H   0  0  0  0  0  0  0  0  0  0  0  0
   18.9618    8.5096    0.0000 H   0  0  0  0  0  0  0  0  0  0  0  0
   19.1920    7.6635    0.0000 H   0  0  0  0  0  0  0  0  0  0  0  0
   20.9917   10.7509    0.0000 H   0  0  0  0  0  0  0  0  0  0  0  0
   20.3741   11.3732    0.0000 H   0  0  0  0  0  0  0  0  0  0  0  0
   19.7517   10.7556    0.0000 H   0  0  0  0  0  0  0  0  0  0  0  0
    0.3857   12.7946    0.0000 H   0  0  0  0  0  0  0  0  0  0  0  0
    0.0000   12.0957    0.0000 H   0  0  0  0  0  0  0  0  0  0  0  0
   20.4104    7.2944    0.0000 H   0  0  0  0  0  0  0  0  0  0  0  0
   21.8414    4.8808    0.0000 H   0  0  0  0  0  0  0  0  0  0  0  0
   18.4900    5.2347    0.0000 H   0  0  0  0  0  0  0  0  0  0  0  0
   18.0995    4.5399    0.0000 H   0  0  0  0  0  0  0  0  0  0  0  0
    0.0192   11.2665    0.0000 H   0  0  0  0  0  0  0  0  0  0  0  0
    0.4368   10.5862    0.0000 H   0  0  0  0  0  0  0  0  0  0  0  0
   21.6997   21.4569    0.0000 H   0  0  0  0  0  0  0  0  0  0  0  0
    5.6244   16.7926    0.0000 H   0  0  0  0  0  0  0  0  0  0  0  0
    5.0068   17.4150    0.0000 H   0  0  0  0  0  0  0  0  0  0  0  0
    4.3844   16.7974    0.0000 H   0  0  0  0  0  0  0  0  0  0  0  0
    6.4081   12.5621    0.0000 H   0  0  0  0  0  0  0  0  0  0  0  0
   19.0169    6.4683    0.0000 H   0  0  0  0  0  0  0  0  0  0  0  0
   20.4479    4.0547    0.0000 H   0  0  0  0  0  0  0  0  0  0  0  0
   16.1396   22.0334    0.0000 H   0  0  0  0  0  0  0  0  0  0  0  0
   19.8355    1.5155    0.0000 H   0  0  0  0  0  0  0  0  0  0  0  0
   20.2373    2.2053    0.0000 H   0  0  0  0  0  0  0  0  0  0  0  0
    3.6084   10.9313    0.0000 H   0  0  0  0  0  0  0  0  0  0  0  0
   24.5633   20.8790    0.0000 H   0  0  0  0  0  0  0  0  0  0  0  0
   24.9598   21.5718    0.0000 H   0  0  0  0  0  0  0  0  0  0  0  0
   18.3158    1.1156    0.0000 H   0  0  0  0  0  0  0  0  0  0  0  0
   19.1140    1.1063    0.0000 H   0  0  0  0  0  0  0  0  0  0  0  0
   24.9534   22.4013    0.0000 H   0  0  0  0  0  0  0  0  0  0  0  0
   24.5463   23.0879    0.0000 H   0  0  0  0  0  0  0  0  0  0  0  0
    2.1106   13.7577    0.0000 H   0  0  0  0  0  0  0  0  0  0  0  0
    1.4834   14.3705    0.0000 H   0  0  0  0  0  0  0  0  0  0  0  0
    0.8707   13.7433    0.0000 H   0  0  0  0  0  0  0  0  0  0  0  0
    3.8140   11.0267    0.0000 H   0  0  0  0  0  0  0  0  0  0  0  0
   23.0637   20.0574    0.0000 H   0  0  0  0  0  0  0  0  0  0  0  0
   21.9765   20.5372    0.0000 H   0  0  0  0  0  0  0  0  0  0  0  0
   18.6275   21.0967    0.0000 H   0  0  0  0  0  0  0  0  0  0  0  0
   19.1142   21.7133    0.0000 H   0  0  0  0  0  0  0  0  0  0  0  0
   19.2507   22.4599    0.0000 H   0  0  0  0  0  0  0  0  0  0  0  0
   19.0136   23.2088    0.0000 H   0  0  0  0  0  0  0  0  0  0  0  0
   16.0394   21.1736    0.0000 H   0  0  0  0  0  0  0  0  0  0  0  0
   17.1787   20.8358    0.0000 H   0  0  0  0  0  0  0  0  0  0  0  0
   20.8026    3.1084    0.0000 H   0  0  0  0  0  0  0  0  0  0  0  0
   21.0263    3.9562    0.0000 H   0  0  0  0  0  0  0  0  0  0  0  0
   20.1785    4.1799    0.0000 H   0  0  0  0  0  0  0  0  0  0  0  0
   16.9604    4.2400    0.0000 H   0  0  0  0  0  0  0  0  0  0  0  0
   22.8238   19.9426    0.0000 H   0  0  0  0  0  0  0  0  0  0  0  0
   23.4415   19.3202    0.0000 H   0  0  0  0  0  0  0  0  0  0  0  0
   24.0638   19.9378    0.0000 H   0  0  0  0  0  0  0  0  0  0  0  0
   23.9687   24.3195    0.0000 H   0  0  0  0  0  0  0  0  0  0  0  0
   18.7457   24.3896    0.0000 H   0  0  0  0  0  0  0  0  0  0  0  0
   18.3606   22.2209    0.0000 H   0  0  0  0  0  0  0  0  0  0  0  0
   16.9604    1.0000    0.0000 H   0  0  0  0  0  0  0  0  0  0  0  0
   16.8852   20.3450    0.0000 H   0  0  0  0  0  0  0  0  0  0  0  0
   17.4588   19.6818    0.0000 H   0  0  0  0  0  0  0  0  0  0  0  0
   18.1220   20.2553    0.0000 H   0  0  0  0  0  0  0  0  0  0  0  0
   22.1403   18.2333    0.0000 H   0  0  0  0  0  0  0  0  0  0  0  0
    0.7168    8.5487    0.0000 H   0  0  0  0  0  0  0  0  0  0  0  0
   23.5304   18.8147    0.0000 H   0  0  0  0  0  0  0  0  0  0  0  0
   17.9775   19.9331    0.0000 H   0  0  0  0  0  0  0  0  0  0  0  0
   16.7305   18.5701    0.0000 H   0  0  0  0  0  0  0  0  0  0  0  0
   23.0497   17.3049    0.0000 H   0  0  0  0  0  0  0  0  0  0  0  0
   20.8337   25.1295    0.0000 H   0  0  0  0  0  0  0  0  0  0  0  0
   18.8575   19.1424    0.0000 H   0  0  0  0  0  0  0  0  0  0  0  0
   17.6352   17.7572    0.0000 H   0  0  0  0  0  0  0  0  0  0  0  0
    7.9203   10.7210    0.0000 H   0  0  0  0  0  0  0  0  0  0  0  0
    8.1440   11.5688    0.0000 H   0  0  0  0  0  0  0  0  0  0  0  0
    7.2962   11.7925    0.0000 H   0  0  0  0  0  0  0  0  0  0  0  0
    5.5760    8.7120    0.0000 H   0  0  0  0  0  0  0  0  0  0  0  0
    6.4220    8.9422    0.0000 H   0  0  0  0  0  0  0  0  0  0  0  0
    6.1918    9.7882    0.0000 H   0  0  0  0  0  0  0  0  0  0  0  0
    3.5664    8.2126    0.0000 H   0  0  0  0  0  0  0  0  0  0  0  0
    4.1959    7.6022    0.0000 H   0  0  0  0  0  0  0  0  0  0  0  0
    4.8063    8.2317    0.0000 H   0  0  0  0  0  0  0  0  0  0  0  0
    3.0264    7.1672    0.0000 H   0  0  0  0  0  0  0  0  0  0  0  0
    3.8698    7.4072    0.0000 H   0  0  0  0  0  0  0  0  0  0  0  0
    3.6298    8.2505    0.0000 H   0  0  0  0  0  0  0  0  0  0  0  0
   20.6626   21.7616    0.0000 H   0  0  0  0  0  0  0  0  0  0  0  0
   21.2676   22.3963    0.0000 H   0  0  0  0  0  0  0  0  0  0  0  0
   20.6329   23.0012    0.0000 H   0  0  0  0  0  0  0  0  0  0  0  0
   23.7417   25.4725    0.0000 H   0  0  0  0  0  0  0  0  0  0  0  0
   23.9687   26.3195    0.0000 H   0  0  0  0  0  0  0  0  0  0  0  0
   23.1217   26.5464    0.0000 H   0  0  0  0  0  0  0  0  0  0  0  0
   14.0523    3.6569    0.0000 H   0  0  0  0  0  0  0  0  0  0  0  0
   13.8254    2.8100    0.0000 H   0  0  0  0  0  0  0  0  0  0  0  0
   14.6723    2.5831    0.0000 H   0  0  0  0  0  0  0  0  0  0  0  0
   14.6084    0.6200    0.0000 H   0  0  0  0  0  0  0  0  0  0  0  0
   15.2284    0.0000    0.0000 H   0  0  0  0  0  0  0  0  0  0  0  0
   15.8484    0.6200    0.0000 H   0  0  0  0  0  0  0  0  0  0  0  0
   21.7941   15.3563    0.0000 H   0  0  0  0  0  0  0  0  0  0  0  0
   22.6692   15.4106    0.0000 H   0  0  0  0  0  0  0  0  0  0  0  0
   22.6149   16.2858    0.0000 H   0  0  0  0  0  0  0  0  0  0  0  0
  1 49  1  0  0  0  0
  1 65  1  0  0  0  0
  2 50  1  0  0  0  0
  2 66  1  0  0  0  0
  3 52  1  0  0  0  0
  3 68  1  0  0  0  0
  4 53  1  0  0  0  0
  4 69  1  0  0  0  0
  5 55  1  0  0  0  0
  5 67  1  0  0  0  0
  6 54  1  0  0  0  0
  6 70  1  0  0  0  0
  7 58  1  0  0  0  0
  7 72  1  0  0  0  0
  8 61  1  0  0  0  0
  8 77  1  0  0  0  0
  9 62  1  0  0  0  0
  9 79  1  0  0  0  0
 10 63  1  0  0  0  0
 10 73  1  0  0  0  0
 11 64  1  0  0  0  0
 11 87  1  0  0  0  0
 12113  1  0  0  0  0
 12124  1  0  0  0  0
 13110  1  0  0  0  0
 13142  1  0  0  0  0
 14111  1  0  0  0  0
 14143  1  0  0  0  0
 15108  1  0  0  0  0
 15254  1  0  0  0  0
 16115  1  0  0  0  0
 16144  1  0  0  0  0
 17117  1  0  0  0  0
 17145  1  0  0  0  0
 18127  1  0  0  0  0
 18146  1  0  0  0  0
 19128  1  0  0  0  0
 19147  1  0  0  0  0
 20125  1  0  0  0  0
 20259  1  0  0  0  0
 21130  1  0  0  0  0
 21148  1  0  0  0  0
 22131  1  0  0  0  0
 22149  1  0  0  0  0
 23136  1  0  0  0  0
 23138  1  0  0  0  0
 24139  1  0  0  0  0
 24150  1  0  0  0  0
 25 31  1  0  0  0  0
 25 37  1  0  0  0  0
 25 51  1  0  0  0  0
 26 32  1  0  0  0  0
 26 43  1  0  0  0  0
 26 56  1  0  0  0  0
 27 71  1  0  0  0  0
 27 80  1  0  0  0  0
 27102  1  0  0  0  0
 28 78  1  0  0  0  0
 28 95  1  0  0  0  0
 28114  1  0  0  0  0
 29 88  1  0  0  0  0
 29 99  1  0  0  0  0
 29118  1  0  0  0  0
 30 93  1  0  0  0  0
 30107  1  0  0  0  0
 30126  1  0  0  0  0
 31 33  1  0  0  0  0
 31 34  1  0  0  0  0
 31151  1  0  0  0  0
 32 35  1  0  0  0  0
 32 39  1  0  0  0  0
 32152  1  0  0  0  0
 33 36  2  0  0  0  0
 33 38  1  0  0  0  0
 34 42  1  0  0  0  0
 34153  1  0  0  0  0
 34154  1  0  0  0  0
 35 41  2  0  0  0  0
 35 44  1  0  0  0  0
 36 40  1  0  0  0  0
 36 49  1  0  0  0  0
 37 40  1  0  0  0  0
 37155  1  0  0  0  0
 37156  1  0  0  0  0
 38 45  1  0  0  0  0
 38 50  2  0  0  0  0
 39 47  1  0  0  0  0
 39157  1  0  0  0  0
 39158  1  0  0  0  0
 40159  1  0  0  0  0
 40160  1  0  0  0  0
 41 46  1  0  0  0  0
 41 52  1  0  0  0  0
 42 45  1  0  0  0  0
 42 55  2  0  0  0  0
 43 46  1  0  0  0  0
 43161  1  0  0  0  0
 43162  1  0  0  0  0
 44 48  1  0  0  0  0
 44 53  2  0  0  0  0
 45 57  2  0  0  0  0
 46163  1  0  0  0  0
 46164  1  0  0  0  0
 47 48  1  0  0  0  0
 47 59  2  0  0  0  0
 48 60  2  0  0  0  0
 49 54  2  0  0  0  0
 50 54  1  0  0  0  0
 51165  1  0  0  0  0
 51166  1  0  0  0  0
 51167  1  0  0  0  0
 52 58  2  0  0  0  0
 53 58  1  0  0  0  0
 55 61  1  0  0  0  0
 56168  1  0  0  0  0
 56169  1  0  0  0  0
 56170  1  0  0  0  0
 57 62  1  0  0  0  0
 57171  1  0  0  0  0
 59 63  1  0  0  0  0
 59172  1  0  0  0  0
 60 64  1  0  0  0  0
 60173  1  0  0  0  0
 61 62  2  0  0  0  0
 63 64  2  0  0  0  0
 65174  1  0  0  0  0
 65175  1  0  0  0  0
 65176  1  0  0  0  0
 66177  1  0  0  0  0
 66178  1  0  0  0  0
 66179  1  0  0  0  0
 67 81  2  0  0  0  0
 67 82  1  0  0  0  0
 68180  1  0  0  0  0
 68181  1  0  0  0  0
 68182  1  0  0  0  0
 69183  1  0  0  0  0
 69184  1  0  0  0  0
 69185  1  0  0  0  0
 70186  1  0  0  0  0
 70187  1  0  0  0  0
 70188  1  0  0  0  0
 71 74  1  1  0  0  0
 71 76  1  0  0  0  0
 71189  1  0  0  0  0
 72190  1  0  0  0  0
 72191  1  0  0  0  0
 72192  1  0  0  0  0
 73 75  1  0  0  0  0
 73 90  2  0  0  0  0
 74 75  1  0  0  0  0
 74193  1  0  0  0  0
 74194  1  0  0  0  0
 75 96  2  0  0  0  0
 76 84  1  0  0  0  0
 76103  2  0  0  0  0
 77196  1  0  0  0  0
 77197  1  0  0  0  0
 77198  1  0  0  0  0
 78 83  1  6  0  0  0
 78 89  1  0  0  0  0
 78195  1  0  0  0  0
 79199  1  0  0  0  0
 79200  1  0  0  0  0
 79201  1  0  0  0  0
 80 85  1  0  0  0  0
 80202  1  0  0  0  0
 80203  1  0  0  0  0
 81 91  1  0  0  0  0
 81204  1  0  0  0  0
 82 92  2  0  0  0  0
 82205  1  0  0  0  0
 83 86  1  0  0  0  0
 83206  1  0  0  0  0
 83207  1  0  0  0  0
 84 85  1  0  0  0  0
 84108  2  0  0  0  0
 85208  1  0  0  0  0
 85209  1  0  0  0  0
 86 91  2  0  0  0  0
 86 92  1  0  0  0  0
 87211  1  0  0  0  0
 87212  1  0  0  0  0
 87213  1  0  0  0  0
 88 94  1  0  0  0  0
 88105  1  0  0  0  0
 88210  1  6  0  0  0
 89 98  1  0  0  0  0
 89116  2  0  0  0  0
 90110  1  0  0  0  0
 90214  1  0  0  0  0
 91215  1  0  0  0  0
 92216  1  0  0  0  0
 93104  1  0  0  0  0
 93112  1  0  0  0  0
 93217  1  0  0  0  0
 94100  1  0  0  0  0
 94113  2  0  0  0  0
 95 97  1  0  0  0  0
 95218  1  0  0  0  0
 95219  1  0  0  0  0
 96111  1  0  0  0  0
 96220  1  0  0  0  0
 97 98  1  0  0  0  0
 97223  1  0  0  0  0
 97224  1  0  0  0  0
 98121  2  0  0  0  0
 99101  1  0  0  0  0
 99221  1  0  0  0  0
 99222  1  0  0  0  0
100101  1  0  0  0  0
100119  2  0  0  0  0
101225  1  0  0  0  0
101226  1  0  0  0  0
102227  1  0  0  0  0
102228  1  0  0  0  0
102229  1  0  0  0  0
103115  1  0  0  0  0
103230  1  0  0  0  0
104106  1  0  0  0  0
104122  2  0  0  0  0
105123  1  0  0  0  0
105231  1  0  0  0  0
105232  1  0  0  0  0
106109  1  0  0  0  0
106120  2  0  0  0  0
107109  1  0  0  0  0
107233  1  0  0  0  0
107234  1  0  0  0  0
108117  1  0  0  0  0
109235  1  0  0  0  0
109236  1  0  0  0  0
110111  2  0  0  0  0
112129  1  0  0  0  0
112237  1  0  0  0  0
112238  1  0  0  0  0
113125  1  0  0  0  0
114239  1  0  0  0  0
114240  1  0  0  0  0
114241  1  0  0  0  0
115117  2  0  0  0  0
116130  1  0  0  0  0
116242  1  0  0  0  0
118243  1  0  0  0  0
118244  1  0  0  0  0
118245  1  0  0  0  0
119128  1  0  0  0  0
119246  1  0  0  0  0
120124  1  0  0  0  0
120247  1  0  0  0  0
121131  1  0  0  0  0
121249  1  0  0  0  0
122127  1  0  0  0  0
122248  1  0  0  0  0
123132  2  0  0  0  0
123133  1  0  0  0  0
124127  2  0  0  0  0
125128  2  0  0  0  0
126250  1  0  0  0  0
126251  1  0  0  0  0
126252  1  0  0  0  0
129134  2  0  0  0  0
129135  1  0  0  0  0
130131  2  0  0  0  0
132136  1  0  0  0  0
132253  1  0  0  0  0
133137  2  0  0  0  0
133255  1  0  0  0  0
134140  1  0  0  0  0
134256  1  0  0  0  0
135141  2  0  0  0  0
135257  1  0  0  0  0
136139  2  0  0  0  0
137139  1  0  0  0  0
137258  1  0  0  0  0
138140  2  0  0  0  0
138141  1  0  0  0  0
140260  1  0  0  0  0
141261  1  0  0  0  0
142262  1  0  0  0  0
142263  1  0  0  0  0
142264  1  0  0  0  0
143265  1  0  0  0  0
143266  1  0  0  0  0
143267  1  0  0  0  0
144268  1  0  0  0  0
144269  1  0  0  0  0
144270  1  0  0  0  0
145271  1  0  0  0  0
145272  1  0  0  0  0
145273  1  0  0  0  0
146274  1  0  0  0  0
146275  1  0  0  0  0
146276  1  0  0  0  0
147277  1  0  0  0  0
147278  1  0  0  0  0
147279  1  0  0  0  0
148280  1  0  0  0  0
148281  1  0  0  0  0
148282  1  0  0  0  0
149283  1  0  0  0  0
149284  1  0  0  0  0
149285  1  0  0  0  0
150286  1  0  0  0  0
150287  1  0  0  0  0
150288  1  0  0  0  0
M  END
> <PUBCHEM_COMPOUND_CID>
11979471

> <PUBCHEM_COMPOUND_CANONICALIZED>
1

> <PUBCHEM_CACTVS_COMPLEXITY>
3270

> <PUBCHEM_CACTVS_HBOND_ACCEPTOR>
30

> <PUBCHEM_CACTVS_HBOND_DONOR>
2

> <PUBCHEM_CACTVS_ROTATABLE_BOND>
26

> <PUBCHEM_CACTVS_SUBSKEYS>
AAADcfB/vgAAAAAAAAAAAAAAAAAAAAAAAAA8ePHjwAAAAADxVAAAHgAACAAADCzBmAYyBoMABgCAAiBCAACCCAAgIAAIiAAOjIgNJyKGsRuGeCvnwBWLuAfw8P8OoQADCAAYQADSAAaQADSAAAAAAAAAAA==

> <PUBCHEM_IUPAC_OPENEYE_NAME>
8-[4-[[(1S)-6,7-dimethoxy-2-methyl-3,4-dihydro-1H-isoquinolin-1-yl]methyl]phenoxy]-1,2,3,9,10-pentamethoxy-6-methyl-5,6,6a,7-tetrahydro-4H-dibenzo[de,g]quinoline;(1S)-1-[[4,5-dimethoxy-2-[(1,2,3,10-tetramethoxy-6-methyl-5,6,6a,7-tetrahydro-4H-dibenzo[de,g]quinolin-9-yl)oxy]phenyl]methyl]-6,7-dimethoxy-2-methyl-3,4-dihydro-1H-isoquinolin-5-ol;(21S)-10,15,26-trimethoxy-4,20-dimethyl-12,28-dioxa-4,20-diazaheptacyclo[27.2.2.17,11.113,17.123,27.03,8.021,35]hexatriaconta-1(31),7(36),8,10,13(35),14,16,23(34),24,26,29,32-dodecaen-14-ol

> <PUBCHEM_IUPAC_CAS_NAME>
8-[4-[[(1S)-6,7-dimethoxy-2-methyl-3,4-dihydro-1H-isoquinolin-1-yl]methyl]phenoxy]-1,2,3,9,10-pentamethoxy-6-methyl-5,6,6a,7-tetrahydro-4H-dibenzo[de,g]quinoline;(1S)-1-[[4,5-dimethoxy-2-[(1,2,3,10-tetramethoxy-6-methyl-5,6,6a,7-tetrahydro-4H-dibenzo[de,g]quinolin-9-yl)oxy]phenyl]methyl]-6,7-dimethoxy-2-methyl-3,4-dihydro-1H-isoquinolin-5-ol;(21S)-10,15,26-trimethoxy-4,20-dimethyl-12,28-dioxa-4,20-diazaheptacyclo[27.2.2.17,11.113,17.123,27.03,8.021,35]hexatriaconta-1(31),7(36),8,10,13(35),14,16,23(34),24,26,29,32-dodecaen-14-ol

> <PUBCHEM_IUPAC_NAME_MARKUP>
8-[4-[[(1<I>S</I>)-6,7-dimethoxy-2-methyl-3,4-dihydro-1<I>H</I>-isoquinolin-1-yl]methyl]phenoxy]-1,2,3,9,10-pentamethoxy-6-methyl-5,6,6<I>a</I>,7-tetrahydro-4<I>H</I>-dibenzo[de,g]quinoline;(1<I>S</I>)-1-[[4,5-dimethoxy-2-[(1,2,3,10-tetramethoxy-6-methyl-5,6,6<I>a</I>,7-tetrahydro-4<I>H</I>-dibenzo[de,g]quinolin-9-yl)oxy]phenyl]methyl]-6,7-dimethoxy-2-methyl-3,4-dihydro-1<I>H</I>-isoquinolin-5-ol;(21<I>S</I>)-10,15,26-trimethoxy-4,20-dimethyl-12,28-dioxa-4,20-diazaheptacyclo[27.2.2.1<SUP>7,11</SUP>.1<SUP>13,17</SUP>.1<SUP>23,27</SUP>.0<SUP>3,8</SUP>.0<SUP>21,35</SUP>]hexatriaconta-1(31),7(36),8,10,13(35),14,16,23(34),24,26,29,32-dodecaen-14-ol

> <PUBCHEM_IUPAC_NAME>
8-[4-[[(1S)-6,7-dimethoxy-2-methyl-3,4-dihydro-1H-isoquinolin-1-yl]methyl]phenoxy]-1,2,3,9,10-pentamethoxy-6-methyl-5,6,6a,7-tetrahydro-4H-dibenzo[de,g]quinoline;(1S)-1-[[4,5-dimethoxy-2-[(1,2,3,10-tetramethoxy-6-methyl-5,6,6a,7-tetrahydro-4H-dibenzo[de,g]quinolin-9-yl)oxy]phenyl]methyl]-6,7-dimethoxy-2-methyl-3,4-dihydro-1H-isoquinolin-5-ol;(21S)-10,15,26-trimethoxy-4,20-dimethyl-12,28-dioxa-4,20-diazaheptacyclo[27.2.2.17,11.113,17.123,27.03,8.021,35]hexatriaconta-1(31),7(36),8,10,13(35),14,16,23(34),24,26,29,32-dodecaen-14-ol

> <PUBCHEM_IUPAC_SYSTEMATIC_NAME>
8-[4-[[(1S)-6,7-dimethoxy-2-methyl-3,4-dihydro-1H-isoquinolin-1-yl]methyl]phenoxy]-1,2,3,9,10-pentamethoxy-6-methyl-5,6,6a,7-tetrahydro-4H-dibenzo[de,g]quinoline;(1S)-1-[[4,5-dimethoxy-2-[(1,2,3,10-tetramethoxy-6-methyl-5,6,6a,7-tetrahydro-4H-dibenzo[de,g]quinolin-9-yl)oxy]phenyl]methyl]-6,7-dimethoxy-2-methyl-3,4-dihydro-1H-isoquinolin-5-ol;(21S)-10,15,26-trimethoxy-4,20-dimethyl-12,28-dioxa-4,20-diazaheptacyclo[27.2.2.17,11.113,17.123,27.03,8.021,35]hexatriaconta-1(31),7(36),8,10,13(35),14,16,23(34),24,26,29,32-dodecaen-14-ol

> <PUBCHEM_IUPAC_TRADITIONAL_NAME>
8-[4-[[(1S)-6,7-dimethoxy-2-methyl-3,4-dihydro-1H-isoquinolin-1-yl]methyl]phenoxy]-1,2,3,9,10-pentamethoxy-6-methyl-5,6,6a,7-tetrahydro-4H-dibenzo[de,g]quinoline;(1S)-1-[4,5-dimethoxy-2-[(1,2,3,10-tetramethoxy-6-methyl-5,6,6a,7-tetrahydro-4H-dibenzo[de,g]quinolin-9-yl)oxy]benzyl]-6,7-dimethoxy-2-methyl-3,4-dihydro-1H-isoquinolin-5-ol;(21S)-10,15,26-trimethoxy-4,20-dimethyl-12,28-dioxa-4,20-diazaheptacyclo[27.2.2.17,11.113,17.123,27.03,8.021,35]hexatriaconta-1(31),7(36),8,10,13(35),14,16,23(34),24,26,29,32-dodecaen-14-ol

> <PUBCHEM_IUPAC_INCHI>
InChI=1S/C42H50N2O10.C41H48N2O8.C37H40N2O6/c1-43-13-11-24-27(20-35(49-6)40(51-8)38(24)45)28(43)16-23-18-31(46-3)33(48-5)21-30(23)54-34-17-22-15-29-36-25(12-14-44(29)2)39(50-7)42(53-10)41(52-9)37(36)26(22)19-32(34)47-4;1-42-16-14-24-19-32(44-3)33(45-4)21-27(24)30(42)18-23-10-12-25(13-11-23)51-38-29-20-31-35-26(15-17-43(31)2)37(47-6)41(50-9)40(49-8)36(35)28(29)22-34(46-5)39(38)48-7;1-38-14-12-24-19-33-31(42-4)21-27(24)28(38)16-22-6-9-26(10-7-22)44-32-18-23(8-11-30(32)41-3)17-29-35-25(13-15-39(29)2)20-34(43-5)36(40)37(35)45-33/h17-21,28-29,45H,11-16H2,1-10H3;10-13,19,21-22,30-31H,14-18,20H2,1-9H3;6-11,18-21,28-29,40H,12-17H2,1-5H3/t28-,29?;30-,31?;28?,29-/m000/s1

> <PUBCHEM_IUPAC_INCHIKEY>
FDVZUNIGZZBPSH-SGHONPRFSA-N

> <PUBCHEM_EXACT_MASS>
2047.979604

> <PUBCHEM_MOLECULAR_FORMULA>
C120H138N6O24

> <PUBCHEM_MOLECULAR_WEIGHT>
2048.4

> <PUBCHEM_OPENEYE_CAN_SMILES>
CN1CCC2=CC3=C(C=C2C1CC4=CC=C(C=C4)OC5=C(C=CC(=C5)CC6C7=C(O3)C(=C(C=C7CCN6C)OC)O)OC)OC.CN1CCC2=C3C1CC4=CC(=C(C=C4C3=C(C(=C2OC)OC)OC)OC)OC5=CC(=C(C=C5CC6C7=CC(=C(C(=C7CCN6C)O)OC)OC)OC)OC.CN1CCC2=C3C1CC4=C(C(=C(C=C4C3=C(C(=C2OC)OC)OC)OC)OC)OC5=CC=C(C=C5)CC6C7=CC(=C(C=C7CCN6C)OC)OC

> <PUBCHEM_OPENEYE_ISO_SMILES>
CN1CCC2=CC(=C(C3=C2[C@@H]1CC4=CC(=C(C=C4)OC)OC5=CC=C(CC6C7=CC(=C(O3)C=C7CCN6C)OC)C=C5)O)OC.CN1CCC2=CC(=C(C=C2[C@@H]1CC3=CC=C(C=C3)OC4=C5CC6C7=C(CCN6C)C(=C(C(=C7C5=CC(=C4OC)OC)OC)OC)OC)OC)OC.CN1CCC2=C(C(=C(C=C2[C@@H]1CC3=CC(=C(C=C3OC4=C(C=C5C(=C4)CC6C7=C(CCN6C)C(=C(C(=C57)OC)OC)OC)OC)OC)OC)OC)OC)O

> <PUBCHEM_CACTVS_TPSA>
263

> <PUBCHEM_MONOISOTOPIC_WEIGHT>
2046.976249

> <PUBCHEM_TOTAL_CHARGE>
0

> <PUBCHEM_HEAVY_ATOM_COUNT>
150

> <PUBCHEM_ATOM_DEF_STEREO_COUNT>
3

> <PUBCHEM_ATOM_UDEF_STEREO_COUNT>
3

> <PUBCHEM_BOND_DEF_STEREO_COUNT>
0

> <PUBCHEM_BOND_UDEF_STEREO_COUNT>
0

> <PUBCHEM_ISOTOPIC_ATOM_COUNT>
0

> <PUBCHEM_COMPONENT_COUNT>
3

> <PUBCHEM_CACTVS_TAUTO_COUNT>
-1

> <PUBCHEM_COORDINATE_TYPE>
1
5
255

> <PUBCHEM_BONDANNOTATIONS>
100  119  8
103  115  8
104  106  8
104  122  8
106  120  8
108  117  8
110  111  8
113  125  8
115  117  8
116  130  8
119  128  8
120  124  8
121  131  8
122  127  8
123  132  8
123  133  8
124  127  8
125  128  8
129  134  8
129  135  8
130  131  8
132  136  8
133  137  8
134  140  8
135  141  8
136  139  8
137  139  8
138  140  8
138  141  8
31  34  3
32  39  3
33  36  8
33  38  8
35  41  8
35  44  8
36  49  8
38  50  8
41  52  8
42  45  8
42  55  8
44  53  8
45  57  8
47  48  8
47  59  8
48  60  8
49  54  8
50  54  8
52  58  8
53  58  8
55  61  8
57  62  8
59  63  8
60  64  8
61  62  8
63  64  8
67  81  8
67  82  8
71  74  5
73  75  8
73  90  8
75  96  8
76  103  8
76  84  8
78  83  6
81  91  8
82  92  8
84  108  8
86  91  8
86  92  8
88  210  6
89  116  8
89  98  8
90  110  8
93  112  3
94  100  8
94  113  8
96  111  8
98  121  8

$$$$
11969631
  -OEChem-04052116402D

 50 52  0     1  0  0  0  0  0999 V2000
    4.5787    0.1857    0.0000 O   0  0  0  0  0  0  0  0  0  0  0  0
    2.8862    2.1565    0.0000 O   0  0  0  0  0  0  0  0  0  0  0  0
    7.1188   -0.3031    0.0000 O   0  0  0  0  0  0  0  0  0  0  0  0
    6.5309   -2.7355    0.0000 O   0  0  0  0  0  0  0  0  0  0  0  0
    2.8660    0.1969    0.0000 O   0  0  0  0  0  0  0  0  0  0  0  0
    7.9848   -1.7808    0.0000 O   0  0  0  0  0  0  0  0  0  0  0  0
    5.4255    2.6299    0.0000 N   0  0  3  0  0  0  0  0  0  0  0  0
    5.4255    1.6522    0.0000 C   0  0  3  0  0  0  0  0  0  0  0  0
    4.5787    1.1634    0.0000 C   0  0  1  0  0  0  0  0  0  0  0  0
    3.8842    2.0922    0.0000 C   0  0  3  0  0  0  0  0  0  0  0  0
    4.4056    2.8743    0.0000 C   0  0  0  0  0  0  0  0  0  0  0  0
    6.2721    1.1634    0.0000 C   0  0  0  0  0  0  0  0  0  0  0  0
    6.3609    2.8960    0.0000 C   0  0  0  0  0  0  0  0  0  0  0  0
    6.9692    2.0922    0.0000 C   0  0  0  0  0  0  0  0  0  0  0  0
    6.2721    0.1857    0.0000 C   0  0  0  0  0  0  0  0  0  0  0  0
    5.4255   -1.2808    0.0000 C   0  0  1  0  0  0  0  0  0  0  0  0
    6.2721   -1.7696    0.0000 C   0  0  2  0  0  0  0  0  0  0  0  0
    4.5787   -1.7696    0.0000 C   0  0  0  0  0  0  0  0  0  0  0  0
    3.7320   -0.3031    0.0000 C   0  0  0  0  0  0  0  0  0  0  0  0
    3.7320   -1.2808    0.0000 C   0  0  0  0  0  0  0  0  0  0  0  0
    7.1188   -1.2808    0.0000 C   0  0  0  0  0  0  0  0  0  0  0  0
    5.4255   -0.2808    0.0000 C   0  0  0  0  0  0  0  0  0  0  0  0
    5.5651   -2.4768    0.0000 C   0  0  0  0  0  0  0  0  0  0  0  0
    2.8660   -1.7808    0.0000 C   0  0  0  0  0  0  0  0  0  0  0  0
    2.0000   -1.2808    0.0000 C   0  0  0  0  0  0  0  0  0  0  0  0
    5.4254    1.0322    0.0000 H   0  0  0  0  0  0  0  0  0  0  0  0
    3.7721    0.8952    0.0000 H   0  0  0  0  0  0  0  0  0  0  0  0
    3.5888    1.5470    0.0000 H   0  0  0  0  0  0  0  0  0  0  0  0
    4.6198    3.4561    0.0000 H   0  0  0  0  0  0  0  0  0  0  0  0
    3.8529    3.1553    0.0000 H   0  0  0  0  0  0  0  0  0  0  0  0
    6.8976    3.2064    0.0000 H   0  0  0  0  0  0  0  0  0  0  0  0
    6.1190    3.4669    0.0000 H   0  0  0  0  0  0  0  0  0  0  0  0
    7.5892    2.0934    0.0000 H   0  0  0  0  0  0  0  0  0  0  0  0
    5.6615    0.2934    0.0000 H   0  0  0  0  0  0  0  0  0  0  0  0
    6.0601   -0.3969    0.0000 H   0  0  0  0  0  0  0  0  0  0  0  0
    2.6114    2.7122    0.0000 H   0  0  0  0  0  0  0  0  0  0  0  0
    5.9624   -0.9708    0.0000 H   0  0  0  0  0  0  0  0  0  0  0  0
    4.1802   -2.2445    0.0000 H   0  0  0  0  0  0  0  0  0  0  0  0
    4.9772   -2.2446    0.0000 H   0  0  0  0  0  0  0  0  0  0  0  0
    6.0455   -0.2808    0.0000 H   0  0  0  0  0  0  0  0  0  0  0  0
    5.4254    0.3392    0.0000 H   0  0  0  0  0  0  0  0  0  0  0  0
    4.8055   -0.2808    0.0000 H   0  0  0  0  0  0  0  0  0  0  0  0
    5.1266   -2.0384    0.0000 H   0  0  0  0  0  0  0  0  0  0  0  0
    5.1267   -2.9152    0.0000 H   0  0  0  0  0  0  0  0  0  0  0  0
    6.0035   -2.9151    0.0000 H   0  0  0  0  0  0  0  0  0  0  0  0
    2.8660   -2.4008    0.0000 H   0  0  0  0  0  0  0  0  0  0  0  0
    7.1298   -2.8960    0.0000 H   0  0  0  0  0  0  0  0  0  0  0  0
    2.3100   -0.7438    0.0000 H   0  0  0  0  0  0  0  0  0  0  0  0
    1.4631   -0.9708    0.0000 H   0  0  0  0  0  0  0  0  0  0  0  0
    1.6900   -1.8177    0.0000 H   0  0  0  0  0  0  0  0  0  0  0  0
  1  9  1  0  0  0  0
  1 19  1  0  0  0  0
  2 10  1  0  0  0  0
  2 36  1  0  0  0  0
  3 15  1  0  0  0  0
  3 21  1  0  0  0  0
 17  4  1  6  0  0  0
  4 47  1  0  0  0  0
  5 19  2  0  0  0  0
  6 21  2  0  0  0  0
  7  8  1  0  0  0  0
  7 11  1  0  0  0  0
  7 13  1  0  0  0  0
  8  9  1  0  0  0  0
  8 12  1  0  0  0  0
  8 26  1  0  0  0  0
  9 10  1  0  0  0  0
  9 27  1  1  0  0  0
 10 11  1  0  0  0  0
 10 28  1  0  0  0  0
 11 29  1  0  0  0  0
 11 30  1  0  0  0  0
 12 14  2  0  0  0  0
 12 15  1  0  0  0  0
 13 14  1  0  0  0  0
 13 31  1  0  0  0  0
 13 32  1  0  0  0  0
 14 33  1  0  0  0  0
 15 34  1  0  0  0  0
 15 35  1  0  0  0  0
 16 17  1  0  0  0  0
 16 18  1  0  0  0  0
 16 22  1  1  0  0  0
 16 37  1  0  0  0  0
 17 21  1  0  0  0  0
 17 23  1  0  0  0  0
 18 20  1  0  0  0  0
 18 38  1  0  0  0  0
 18 39  1  0  0  0  0
 19 20  1  0  0  0  0
 20 24  2  0  0  0  0
 22 40  1  0  0  0  0
 22 41  1  0  0  0  0
 22 42  1  0  0  0  0
 23 43  1  0  0  0  0
 23 44  1  0  0  0  0
 23 45  1  0  0  0  0
 24 25  1  0  0  0  0
 24 46  1  0  0  0  0
 25 48  1  0  0  0  0
 25 49  1  0  0  0  0
 25 50  1  0  0  0  0
M  END
> <PUBCHEM_COMPOUND_CID>
11969631

> <PUBCHEM_COMPOUND_CANONICALIZED>
1

> <PUBCHEM_CACTVS_COMPLEXITY>
642

> <PUBCHEM_CACTVS_HBOND_ACCEPTOR>
7

> <PUBCHEM_CACTVS_HBOND_DONOR>
2

> <PUBCHEM_CACTVS_ROTATABLE_BOND>
0

> <PUBCHEM_CACTVS_SUBSKEYS>
AAADceB6OAAAAAAAAAAAAAAAAAAAAWIAAAAAAAAAAAAQAAAAAAAAHgAACAAADXzhgAYCCAMABgCIAiDSCAKAAAAgAAAACAFIAEgDFBIAoQAHUAAGwACbIYPYbBxOgAAAAAAAAAAAAAAAAAAAAAAAAAAAAA==

> <PUBCHEM_IUPAC_OPENEYE_NAME>
(1S,4Z,6R,7R)-4-ethylidene-7,16-dihydroxy-6,7-dimethyl-2,9-dioxa-14-azatricyclo[9.5.1.014,17]heptadec-11-ene-3,8-dione

> <PUBCHEM_IUPAC_CAS_NAME>
(1S,4Z,6R,7R)-4-ethylidene-7,16-dihydroxy-6,7-dimethyl-2,9-dioxa-14-azatricyclo[9.5.1.014,17]heptadec-11-ene-3,8-dione

> <PUBCHEM_IUPAC_NAME_MARKUP>
(1<I>S</I>,4<I>Z</I>,6<I>R</I>,7<I>R</I>)-4-ethylidene-7,16-dihydroxy-6,7-dimethyl-2,9-dioxa-14-azatricyclo[9.5.1.0<SUP>14,17</SUP>]heptadec-11-ene-3,8-dione

> <PUBCHEM_IUPAC_NAME>
(1S,4Z,6R,7R)-4-ethylidene-7,16-dihydroxy-6,7-dimethyl-2,9-dioxa-14-azatricyclo[9.5.1.014,17]heptadec-11-ene-3,8-dione

> <PUBCHEM_IUPAC_SYSTEMATIC_NAME>
(1S,4Z,6R,7R)-4-ethylidene-6,7-dimethyl-7,16-bis(oxidanyl)-2,9-dioxa-14-azatricyclo[9.5.1.014,17]heptadec-11-ene-3,8-dione

> <PUBCHEM_IUPAC_TRADITIONAL_NAME>
(1S,4Z,6R,7R)-4-ethylidene-7,16-dihydroxy-6,7-dimethyl-2,9-dioxa-14-azatricyclo[9.5.1.014,17]heptadec-11-ene-3,8-quinone

> <PUBCHEM_IUPAC_INCHI>
InChI=1S/C18H25NO6/c1-4-11-7-10(2)18(3,23)17(22)24-9-12-5-6-19-8-13(20)15(14(12)19)25-16(11)21/h4-5,10,13-15,20,23H,6-9H2,1-3H3/b11-4-/t10-,13?,14?,15-,18-/m1/s1

> <PUBCHEM_IUPAC_INCHIKEY>
NPYPUYCITBTPSF-QGZQKHTKSA-N

> <PUBCHEM_XLOGP3_AA>
0.1

> <PUBCHEM_EXACT_MASS>
351.168188

> <PUBCHEM_MOLECULAR_FORMULA>
C18H25NO6

> <PUBCHEM_MOLECULAR_WEIGHT>
351.4

> <PUBCHEM_OPENEYE_CAN_SMILES>
CC=C1CC(C(C(=O)OCC2=CCN3C2C(C(C3)O)OC1=O)(C)O)C

> <PUBCHEM_OPENEYE_ISO_SMILES>
C/C=C\1/C[C@H]([C@@](C(=O)OCC2=CCN3C2[C@@H](C(C3)O)OC1=O)(C)O)C

> <PUBCHEM_CACTVS_TPSA>
96.3

> <PUBCHEM_MONOISOTOPIC_WEIGHT>
351.168188

> <PUBCHEM_TOTAL_CHARGE>
0

> <PUBCHEM_HEAVY_ATOM_COUNT>
25

> <PUBCHEM_ATOM_DEF_STEREO_COUNT>
3

> <PUBCHEM_ATOM_UDEF_STEREO_COUNT>
2

> <PUBCHEM_BOND_DEF_STEREO_COUNT>
1

> <PUBCHEM_BOND_UDEF_STEREO_COUNT>
0

> <PUBCHEM_ISOTOPIC_ATOM_COUNT>
0

> <PUBCHEM_COMPONENT_COUNT>
1

> <PUBCHEM_CACTVS_TAUTO_COUNT>
-1

> <PUBCHEM_COORDINATE_TYPE>
1
5
255

> <PUBCHEM_BONDANNOTATIONS>
16  22  5
10  2  3
17  4  6
8  12  3
9  27  5

$$$$
11969630
  -OEChem-04052116402D

 36 39  0     1  0  0  0  0  0999 V2000
    5.4432    3.3268    0.0000 O   0  0  0  0  0  0  0  0  0  0  0  0
    3.2129    1.6887    0.0000 O   0  0  0  0  0  0  0  0  0  0  0  0
    7.9698    1.2130    0.0000 O   0  0  0  0  0  0  0  0  0  0  0  0
    5.6622    0.4124    0.0000 O   0  0  0  0  0  0  0  0  0  0  0  0
    7.2450   -0.4150    0.0000 O   0  0  0  0  0  0  0  0  0  0  0  0
    2.0000    0.3909    0.0000 O   0  0  0  0  0  0  0  0  0  0  0  0
    7.3250   -2.7072    0.0000 O   0  0  0  0  0  0  0  0  0  0  0  0
    4.5483    0.7863    0.0000 C   0  0  2  0  0  0  0  0  0  0  0  0
    4.2062    1.7260    0.0000 C   0  0  1  0  0  0  0  0  0  0  0  0
    5.9210    1.3783    0.0000 C   0  0  2  0  0  0  0  0  0  0  0  0
    6.1798    2.3442    0.0000 C   0  0  3  0  0  0  0  0  0  0  0  0
    7.1927    0.5836    0.0000 C   0  0  3  0  0  0  0  0  0  0  0  0
    3.7633    0.1763    0.0000 C   0  0  0  0  0  0  0  0  0  0  0  0
    7.6114    2.1465    0.0000 C   0  0  0  0  0  0  0  0  0  0  0  0
    2.9397    0.7329    0.0000 C   0  0  0  0  0  0  0  0  0  0  0  0
    3.7965   -0.8232    0.0000 C   0  0  0  0  0  0  0  0  0  0  0  0
    4.6786   -1.2942    0.0000 C   0  0  0  0  0  0  0  0  0  0  0  0
    5.5276   -0.7657    0.0000 C   0  0  0  0  0  0  0  0  0  0  0  0
    4.7118   -2.2936    0.0000 C   0  0  0  0  0  0  0  0  0  0  0  0
    6.4097   -1.2367    0.0000 C   0  0  0  0  0  0  0  0  0  0  0  0
    5.5940   -2.7646    0.0000 C   0  0  0  0  0  0  0  0  0  0  0  0
    6.4429   -2.2362    0.0000 C   0  0  0  0  0  0  0  0  0  0  0  0
    4.8390   -0.0125    0.0000 H   0  0  0  0  0  0  0  0  0  0  0  0
    3.9155    2.5247    0.0000 H   0  0  0  0  0  0  0  0  0  0  0  0
    6.4945    2.8784    0.0000 H   0  0  0  0  0  0  0  0  0  0  0  0
    6.6584    0.2690    0.0000 H   0  0  0  0  0  0  0  0  0  0  0  0
    8.2192    2.2689    0.0000 H   0  0  0  0  0  0  0  0  0  0  0  0
    7.5924    2.7662    0.0000 H   0  0  0  0  0  0  0  0  0  0  0  0
    6.1006   -0.0260    0.0000 H   0  0  0  0  0  0  0  0  0  0  0  0
    3.2702   -1.1508    0.0000 H   0  0  0  0  0  0  0  0  0  0  0  0
    7.7974   -0.6965    0.0000 H   0  0  0  0  0  0  0  0  0  0  0  0
    5.5070   -0.1461    0.0000 H   0  0  0  0  0  0  0  0  0  0  0  0
    4.1855   -2.6213    0.0000 H   0  0  0  0  0  0  0  0  0  0  0  0
    6.9361   -0.9091    0.0000 H   0  0  0  0  0  0  0  0  0  0  0  0
    5.6145   -3.3843    0.0000 H   0  0  0  0  0  0  0  0  0  0  0  0
    7.3456   -3.3268    0.0000 H   0  0  0  0  0  0  0  0  0  0  0  0
  1 10  1  0  0  0  0
  1 11  1  0  0  0  0
  2  9  1  0  0  0  0
  2 15  1  0  0  0  0
  3 12  1  0  0  0  0
  3 14  1  0  0  0  0
 10  4  1  6  0  0  0
  4 29  1  0  0  0  0
  5 12  1  0  0  0  0
  5 31  1  0  0  0  0
  6 15  2  0  0  0  0
  7 22  1  0  0  0  0
  7 36  1  0  0  0  0
  8  9  1  0  0  0  0
  8 10  1  0  0  0  0
  8 13  1  0  0  0  0
  8 23  1  1  0  0  0
  9 11  1  0  0  0  0
  9 24  1  1  0  0  0
 10 12  1  0  0  0  0
 11 14  1  0  0  0  0
 11 25  1  0  0  0  0
 12 26  1  0  0  0  0
 13 15  1  0  0  0  0
 13 16  2  0  0  0  0
 14 27  1  0  0  0  0
 14 28  1  0  0  0  0
 16 17  1  0  0  0  0
 16 30  1  0  0  0  0
 17 18  2  0  0  0  0
 17 19  1  0  0  0  0
 18 20  1  0  0  0  0
 18 32  1  0  0  0  0
 19 21  2  0  0  0  0
 19 33  1  0  0  0  0
 20 22  2  0  0  0  0
 20 34  1  0  0  0  0
 21 22  1  0  0  0  0
 21 35  1  0  0  0  0
M  END
> <PUBCHEM_COMPOUND_CID>
11969630

> <PUBCHEM_COMPOUND_CANONICALIZED>
1

> <PUBCHEM_CACTVS_COMPLEXITY>
510

> <PUBCHEM_CACTVS_HBOND_ACCEPTOR>
7

> <PUBCHEM_CACTVS_HBOND_DONOR>
3

> <PUBCHEM_CACTVS_ROTATABLE_BOND>
1

> <PUBCHEM_CACTVS_SUBSKEYS>
AAADccBwOAAAAAAAAAAAAAAAAAAAASJAAAA0QAAABIASAAABAAAAGgAACAAADRSwmAMwDoAABgCIAiDSCAACAAAgIAAIiAEGCMgZNjKCMRKCcAAlwBEPuYfK7AxOIAAAAAAAAABAAAAAAAAAAAAAAAAAAA==

> <PUBCHEM_IUPAC_OPENEYE_NAME>
(2S,5E,6R,7R)-7,8-dihydroxy-5-[(4-hydroxyphenyl)methylene]-3,9,11-trioxatricyclo[5.3.1.02,6]undecan-4-one

> <PUBCHEM_IUPAC_CAS_NAME>
(2S,5E,6R,7R)-7,8-dihydroxy-5-[(4-hydroxyphenyl)methylidene]-3,9,11-trioxatricyclo[5.3.1.02,6]undecan-4-one

> <PUBCHEM_IUPAC_NAME_MARKUP>
(2<I>S</I>,5<I>E</I>,6<I>R</I>,7<I>R</I>)-7,8-dihydroxy-5-[(4-hydroxyphenyl)methylidene]-3,9,11-trioxatricyclo[5.3.1.0<SUP>2,6</SUP>]undecan-4-one

> <PUBCHEM_IUPAC_NAME>
(2S,5E,6R,7R)-7,8-dihydroxy-5-[(4-hydroxyphenyl)methylidene]-3,9,11-trioxatricyclo[5.3.1.02,6]undecan-4-one

> <PUBCHEM_IUPAC_SYSTEMATIC_NAME>
(2S,5E,6R,7R)-5-[(4-hydroxyphenyl)methylidene]-7,8-bis(oxidanyl)-3,9,11-trioxatricyclo[5.3.1.02,6]undecan-4-one

> <PUBCHEM_IUPAC_TRADITIONAL_NAME>
(2S,5E,6R,7R)-7,8-dihydroxy-5-(4-hydroxybenzylidene)-3,9,11-trioxatricyclo[5.3.1.02,6]undecan-4-one

> <PUBCHEM_IUPAC_INCHI>
InChI=1S/C15H14O7/c16-8-3-1-7(2-4-8)5-9-11-12(21-13(9)17)10-6-20-14(18)15(11,19)22-10/h1-5,10-12,14,16,18-19H,6H2/b9-5+/t10?,11-,12-,14?,15-/m1/s1

> <PUBCHEM_IUPAC_INCHIKEY>
PWQBEBGUDFGPIQ-YNUJDMDGSA-N

> <PUBCHEM_XLOGP3_AA>
-0.2

> <PUBCHEM_EXACT_MASS>
306.073953

> <PUBCHEM_MOLECULAR_FORMULA>
C15H14O7

> <PUBCHEM_MOLECULAR_WEIGHT>
306.27

> <PUBCHEM_OPENEYE_CAN_SMILES>
C1C2C3C(C(=CC4=CC=C(C=C4)O)C(=O)O3)C(O2)(C(O1)O)O

> <PUBCHEM_OPENEYE_ISO_SMILES>
C1C2[C@@H]3[C@@H](/C(=C\C4=CC=C(C=C4)O)/C(=O)O3)[C@@](O2)(C(O1)O)O

> <PUBCHEM_CACTVS_TPSA>
105

> <PUBCHEM_MONOISOTOPIC_WEIGHT>
306.073953

> <PUBCHEM_TOTAL_CHARGE>
0

> <PUBCHEM_HEAVY_ATOM_COUNT>
22

> <PUBCHEM_ATOM_DEF_STEREO_COUNT>
3

> <PUBCHEM_ATOM_UDEF_STEREO_COUNT>
2

> <PUBCHEM_BOND_DEF_STEREO_COUNT>
1

> <PUBCHEM_BOND_UDEF_STEREO_COUNT>
0

> <PUBCHEM_ISOTOPIC_ATOM_COUNT>
0

> <PUBCHEM_COMPONENT_COUNT>
1

> <PUBCHEM_CACTVS_TAUTO_COUNT>
-1

> <PUBCHEM_COORDINATE_TYPE>
1
5
255

> <PUBCHEM_BONDANNOTATIONS>
11  14  3
17  18  8
17  19  8
18  20  8
19  21  8
20  22  8
21  22  8
10  4  6
12  5  3
8  23  5
9  24  5

$$$$
11969629
  -OEChem-04052116402D

 66 71  0     1  0  0  0  0  0999 V2000
    5.9295   -0.3270    0.0000 O   0  0  0  0  0  0  0  0  0  0  0  0
    6.8671   -1.8732    0.0000 O   0  0  0  0  0  0  0  0  0  0  0  0
    5.1350   -1.8732    0.0000 O   0  0  0  0  0  0  0  0  0  0  0  0
    6.0458    2.8370    0.0000 O   0  0  0  0  0  0  0  0  0  0  0  0
    6.8671   -3.8732    0.0000 O   0  0  0  0  0  0  0  0  0  0  0  0
    5.1350   -4.8732    0.0000 O   0  0  0  0  0  0  0  0  0  0  0  0
    3.4030   -3.8732    0.0000 O   0  0  0  0  0  0  0  0  0  0  0  0
    2.5369   -2.3732    0.0000 O   0  0  0  0  0  0  0  0  0  0  0  0
    7.8160    2.8271    0.0000 N   0  0  0  0  0  0  0  0  0  0  0  0
   10.4931    2.5120    0.0000 N   0  0  0  0  0  0  0  0  0  0  0  0
    7.7920    0.7579    0.0000 C   0  0  1  0  0  0  0  0  0  0  0  0
    8.6801    2.3237    0.0000 C   0  0  3  0  0  0  0  0  0  0  0  0
    8.6921    1.2822    0.0000 C   0  0  0  0  0  0  0  0  0  0  0  0
    7.8046   -0.3270    0.0000 C   0  0  2  0  0  0  0  0  0  0  0  0
    6.8920    1.2822    0.0000 C   0  0  0  0  0  0  0  0  0  0  0  0
    9.5480    2.8204    0.0000 C   0  0  0  0  0  0  0  0  0  0  0  0
    7.8198    3.8270    0.0000 C   0  0  0  0  0  0  0  0  0  0  0  0
    6.8671   -0.8732    0.0000 C   0  0  1  0  0  0  0  0  0  0  0  0
    9.5519    3.8204    0.0000 C   0  0  0  0  0  0  0  0  0  0  0  0
    6.9040    2.3237    0.0000 C   0  0  0  0  0  0  0  0  0  0  0  0
    8.6878    4.3237    0.0000 C   0  0  0  0  0  0  0  0  0  0  0  0
    5.9421    0.7579    0.0000 C   0  0  0  0  0  0  0  0  0  0  0  0
   10.4993    4.1215    0.0000 C   0  0  0  0  0  0  0  0  0  0  0  0
    8.6744   -0.8204    0.0000 C   0  0  0  0  0  0  0  0  0  0  0  0
    6.0010   -2.3732    0.0000 C   0  0  3  0  0  0  0  0  0  0  0  0
   11.0798    3.3145    0.0000 C   0  0  0  0  0  0  0  0  0  0  0  0
    6.0010   -3.3732    0.0000 C   0  0  3  0  0  0  0  0  0  0  0  0
    5.1350   -3.8732    0.0000 C   0  0  3  0  0  0  0  0  0  0  0  0
    4.2690   -3.3732    0.0000 C   0  0  3  0  0  0  0  0  0  0  0  0
    4.2690   -2.3732    0.0000 C   0  0  3  0  0  0  0  0  0  0  0  0
   10.9103    5.0719    0.0000 C   0  0  0  0  0  0  0  0  0  0  0  0
   12.1115    3.4020    0.0000 C   0  0  0  0  0  0  0  0  0  0  0  0
    8.6822   -1.8203    0.0000 C   0  0  0  0  0  0  0  0  0  0  0  0
    3.4030   -1.8732    0.0000 C   0  0  0  0  0  0  0  0  0  0  0  0
   11.9397    5.1832    0.0000 C   0  0  0  0  0  0  0  0  0  0  0  0
   12.5444    4.3426    0.0000 C   0  0  0  0  0  0  0  0  0  0  0  0
    8.5314    0.3386    0.0000 H   0  0  0  0  0  0  0  0  0  0  0  0
    9.2182    2.0158    0.0000 H   0  0  0  0  0  0  0  0  0  0  0  0
    8.9079    0.7009    0.0000 H   0  0  0  0  0  0  0  0  0  0  0  0
    9.3017    1.3953    0.0000 H   0  0  0  0  0  0  0  0  0  0  0  0
    8.3385   -0.0119    0.0000 H   0  0  0  0  0  0  0  0  0  0  0  0
    7.6100    4.4105    0.0000 H   0  0  0  0  0  0  0  0  0  0  0  0
    7.2088    3.7217    0.0000 H   0  0  0  0  0  0  0  0  0  0  0  0
    7.4046   -1.1821    0.0000 H   0  0  0  0  0  0  0  0  0  0  0  0
    9.0881    4.7971    0.0000 H   0  0  0  0  0  0  0  0  0  0  0  0
    8.2911    4.8002    0.0000 H   0  0  0  0  0  0  0  0  0  0  0  0
    5.4100    1.0761    0.0000 H   0  0  0  0  0  0  0  0  0  0  0  0
   10.6834    1.9219    0.0000 H   0  0  0  0  0  0  0  0  0  0  0  0
    9.2090   -0.5062    0.0000 H   0  0  0  0  0  0  0  0  0  0  0  0
    6.0010   -1.7532    0.0000 H   0  0  0  0  0  0  0  0  0  0  0  0
    6.0010   -3.9932    0.0000 H   0  0  0  0  0  0  0  0  0  0  0  0
    4.5981   -4.1832    0.0000 H   0  0  0  0  0  0  0  0  0  0  0  0
    4.2690   -3.9932    0.0000 H   0  0  0  0  0  0  0  0  0  0  0  0
    4.2690   -1.7532    0.0000 H   0  0  0  0  0  0  0  0  0  0  0  0
   10.5424    5.5709    0.0000 H   0  0  0  0  0  0  0  0  0  0  0  0
   12.4677    2.8945    0.0000 H   0  0  0  0  0  0  0  0  0  0  0  0
    3.8015   -1.3982    0.0000 H   0  0  0  0  0  0  0  0  0  0  0  0
    3.0044   -1.3982    0.0000 H   0  0  0  0  0  0  0  0  0  0  0  0
    8.1476   -2.1345    0.0000 H   0  0  0  0  0  0  0  0  0  0  0  0
    9.2215   -2.1262    0.0000 H   0  0  0  0  0  0  0  0  0  0  0  0
   12.1924    5.7493    0.0000 H   0  0  0  0  0  0  0  0  0  0  0  0
    6.8671   -4.4932    0.0000 H   0  0  0  0  0  0  0  0  0  0  0  0
   13.1615    4.4021    0.0000 H   0  0  0  0  0  0  0  0  0  0  0  0
    4.5981   -5.1832    0.0000 H   0  0  0  0  0  0  0  0  0  0  0  0
    3.4030   -4.4932    0.0000 H   0  0  0  0  0  0  0  0  0  0  0  0
    2.0000   -2.0632    0.0000 H   0  0  0  0  0  0  0  0  0  0  0  0
  1 18  1  0  0  0  0
  1 22  1  0  0  0  0
 18  2  1  6  0  0  0
  2 25  1  0  0  0  0
  3 25  1  0  0  0  0
  3 30  1  0  0  0  0
  4 20  2  0  0  0  0
  5 27  1  0  0  0  0
  5 62  1  0  0  0  0
  6 28  1  0  0  0  0
  6 64  1  0  0  0  0
  7 29  1  0  0  0  0
  7 65  1  0  0  0  0
  8 34  1  0  0  0  0
  8 66  1  0  0  0  0
  9 12  1  0  0  0  0
  9 17  1  0  0  0  0
  9 20  1  0  0  0  0
 10 16  1  0  0  0  0
 10 26  1  0  0  0  0
 10 48  1  0  0  0  0
 11 13  1  0  0  0  0
 11 14  1  0  0  0  0
 11 15  1  0  0  0  0
 11 37  1  6  0  0  0
 12 13  1  0  0  0  0
 12 16  1  0  0  0  0
 12 38  1  0  0  0  0
 13 39  1  0  0  0  0
 13 40  1  0  0  0  0
 14 18  1  0  0  0  0
 14 24  1  1  0  0  0
 14 41  1  0  0  0  0
 15 20  1  0  0  0  0
 15 22  2  0  0  0  0
 16 19  2  0  0  0  0
 17 21  1  0  0  0  0
 17 42  1  0  0  0  0
 17 43  1  0  0  0  0
 18 44  1  0  0  0  0
 19 21  1  0  0  0  0
 19 23  1  0  0  0  0
 21 45  1  0  0  0  0
 21 46  1  0  0  0  0
 22 47  1  0  0  0  0
 23 26  1  0  0  0  0
 23 31  2  0  0  0  0
 24 33  2  0  0  0  0
 24 49  1  0  0  0  0
 25 27  1  0  0  0  0
 25 50  1  0  0  0  0
 26 32  2  0  0  0  0
 27 28  1  0  0  0  0
 27 51  1  0  0  0  0
 28 29  1  0  0  0  0
 28 52  1  0  0  0  0
 29 30  1  0  0  0  0
 29 53  1  0  0  0  0
 30 34  1  0  0  0  0
 30 54  1  0  0  0  0
 31 35  1  0  0  0  0
 31 55  1  0  0  0  0
 32 36  1  0  0  0  0
 32 56  1  0  0  0  0
 33 59  1  0  0  0  0
 33 60  1  0  0  0  0
 34 57  1  0  0  0  0
 34 58  1  0  0  0  0
 35 36  2  0  0  0  0
 35 61  1  0  0  0  0
 36 63  1  0  0  0  0
M  END
> <PUBCHEM_COMPOUND_CID>
11969629

> <PUBCHEM_COMPOUND_CANONICALIZED>
1

> <PUBCHEM_CACTVS_COMPLEXITY>
899

> <PUBCHEM_CACTVS_HBOND_ACCEPTOR>
8

> <PUBCHEM_CACTVS_HBOND_DONOR>
5

> <PUBCHEM_CACTVS_ROTATABLE_BOND>
4

> <PUBCHEM_CACTVS_SUBSKEYS>
AAADceB7PAAAAAAAAAAAAAAAAAAAAWAAAAA8WJECAAAAAFix8AAAHgAQCAAADTzxngcwyPPJlgCoAyVyVACCiCAhIiAImSE4ZNgZcPLAkZG2YAhl1gDPyIfY/e+egAAAAAACAAAAAAAAAAQAAAAAAAAAAA==

> <PUBCHEM_IUPAC_OPENEYE_NAME>
(18S,19R,20S)-18-[3,4,5-trihydroxy-6-(hydroxymethyl)tetrahydropyran-2-yl]oxy-19-vinyl-17-oxa-3,13-diazapentacyclo[11.8.0.02,10.04,9.015,20]henicosa-2(10),4,6,8,15-pentaen-14-one

> <PUBCHEM_IUPAC_CAS_NAME>
(18S,19R,20S)-19-ethenyl-18-[[3,4,5-trihydroxy-6-(hydroxymethyl)-2-oxanyl]oxy]-17-oxa-3,13-diazapentacyclo[11.8.0.02,10.04,9.015,20]heneicosa-2(10),4,6,8,15-pentaen-14-one

> <PUBCHEM_IUPAC_NAME_MARKUP>
(18<I>S</I>,19<I>R</I>,20<I>S</I>)-19-ethenyl-18-[3,4,5-trihydroxy-6-(hydroxymethyl)oxan-2-yl]oxy-17-oxa-3,13-diazapentacyclo[11.8.0.0<SUP>2,10</SUP>.0<SUP>4,9</SUP>.0<SUP>15,20</SUP>]henicosa-2(10),4,6,8,15-pentaen-14-one

> <PUBCHEM_IUPAC_NAME>
(18S,19R,20S)-19-ethenyl-18-[3,4,5-trihydroxy-6-(hydroxymethyl)oxan-2-yl]oxy-17-oxa-3,13-diazapentacyclo[11.8.0.02,10.04,9.015,20]henicosa-2(10),4,6,8,15-pentaen-14-one

> <PUBCHEM_IUPAC_SYSTEMATIC_NAME>
(18S,19R,20S)-19-ethenyl-18-[6-(hydroxymethyl)-3,4,5-tris(oxidanyl)oxan-2-yl]oxy-17-oxa-3,13-diazapentacyclo[11.8.0.02,10.04,9.015,20]henicosa-2(10),4,6,8,15-pentaen-14-one

> <PUBCHEM_IUPAC_TRADITIONAL_NAME>
(18S,19R,20S)-18-(3,4,5-trihydroxy-6-methylol-tetrahydropyran-2-yl)oxy-19-vinyl-17-oxa-3,13-diazapentacyclo[11.8.0.02,10.04,9.015,20]heneicosa-2(10),4,6,8,15-pentaen-14-one

> <PUBCHEM_IUPAC_INCHI>
InChI=1S/C26H30N2O8/c1-2-12-15-9-18-20-14(13-5-3-4-6-17(13)27-20)7-8-28(18)24(33)16(15)11-34-25(12)36-26-23(32)22(31)21(30)19(10-29)35-26/h2-6,11-12,15,18-19,21-23,25-27,29-32H,1,7-10H2/t12-,15+,18?,19?,21?,22?,23?,25+,26?/m1/s1

> <PUBCHEM_IUPAC_INCHIKEY>
LBRPLJCNRZUXLS-RHPDBZOLSA-N

> <PUBCHEM_XLOGP3_AA>
0.4

> <PUBCHEM_EXACT_MASS>
498.200216

> <PUBCHEM_MOLECULAR_FORMULA>
C26H30N2O8

> <PUBCHEM_MOLECULAR_WEIGHT>
498.5

> <PUBCHEM_OPENEYE_CAN_SMILES>
C=CC1C2CC3C4=C(CCN3C(=O)C2=COC1OC5C(C(C(C(O5)CO)O)O)O)C6=CC=CC=C6N4

> <PUBCHEM_OPENEYE_ISO_SMILES>
C=C[C@@H]1[C@@H]2CC3C4=C(CCN3C(=O)C2=CO[C@H]1OC5C(C(C(C(O5)CO)O)O)O)C6=CC=CC=C6N4

> <PUBCHEM_CACTVS_TPSA>
145

> <PUBCHEM_MONOISOTOPIC_WEIGHT>
498.200216

> <PUBCHEM_TOTAL_CHARGE>
0

> <PUBCHEM_HEAVY_ATOM_COUNT>
36

> <PUBCHEM_ATOM_DEF_STEREO_COUNT>
3

> <PUBCHEM_ATOM_UDEF_STEREO_COUNT>
6

> <PUBCHEM_BOND_DEF_STEREO_COUNT>
0

> <PUBCHEM_BOND_UDEF_STEREO_COUNT>
0

> <PUBCHEM_ISOTOPIC_ATOM_COUNT>
0

> <PUBCHEM_COMPONENT_COUNT>
1

> <PUBCHEM_CACTVS_TAUTO_COUNT>
-1

> <PUBCHEM_COORDINATE_TYPE>
1
5
255

> <PUBCHEM_BONDANNOTATIONS>
10  16  8
10  26  8
11  37  6
12  13  3
14  24  5
16  19  8
19  23  8
18  2  6
25  2  3
23  26  8
23  31  8
26  32  8
30  34  3
31  35  8
32  36  8
35  36  8
27  5  3
28  6  3
29  7  3

$$$$
11969624
  -OEChem-04052116402D

 59 62  0     1  0  0  0  0  0999 V2000
    4.4455   -2.0398    0.0000 O   0  0  0  0  0  0  0  0  0  0  0  0
    7.9896    2.0503    0.0000 O   0  0  0  0  0  0  0  0  0  0  0  0
    6.2237    1.0125    0.0000 O   0  0  0  0  0  0  0  0  0  0  0  0
    5.3631   -3.5536    0.0000 O   0  0  0  0  0  0  0  0  0  0  0  0
   10.6195   -0.5322    0.0000 O   0  0  0  0  0  0  0  0  0  0  0  0
    9.7361   -2.0221    0.0000 O   0  0  0  0  0  0  0  0  0  0  0  0
    2.5033    0.7118    0.0000 O   0  0  0  0  0  0  0  0  0  0  0  0
    9.7216    2.0569    0.0000 O   0  0  0  0  0  0  0  0  0  0  0  0
    7.9775   -1.0190    0.0000 C   0  0  3  0  0  0  0  0  0  0  0  0
    6.2455   -1.0190    0.0000 C   0  0  3  0  0  0  0  0  0  0  0  0
    7.1115   -0.5190    0.0000 C   0  0  1  0  0  0  0  0  0  0  0  0
    6.2455   -2.0190    0.0000 C   0  0  1  0  0  0  0  0  0  0  0  0
    7.9775   -2.0190    0.0000 C   0  0  0  0  0  0  0  0  0  0  0  0
    8.8875   -0.5121    0.0000 C   0  0  3  0  0  0  0  0  0  0  0  0
    7.1115   -2.5190    0.0000 C   0  0  0  0  0  0  0  0  0  0  0  0
    5.3515   -0.4843    0.0000 C   0  0  0  0  0  0  0  0  0  0  0  0
    7.0954    0.5225    0.0000 C   0  0  0  0  0  0  0  0  0  0  0  0
    8.8956    0.5295    0.0000 C   0  0  0  0  0  0  0  0  0  0  0  0
    8.8435   -1.5190    0.0000 C   0  0  0  0  0  0  0  0  0  0  0  0
    6.2455   -0.0190    0.0000 C   0  0  0  0  0  0  0  0  0  0  0  0
    7.9935    1.0503    0.0000 C   0  0  3  0  0  0  0  0  0  0  0  0
    4.4455   -0.9982    0.0000 C   0  0  1  0  0  0  0  0  0  0  0  0
    5.3515   -2.5537    0.0000 C   0  0  0  0  0  0  0  0  0  0  0  0
    9.7477   -1.0221    0.0000 C   0  0  0  0  0  0  0  0  0  0  0  0
    3.5814   -0.4948    0.0000 C   0  0  0  0  0  0  0  0  0  0  0  0
    2.6663   -0.8981    0.0000 C   0  0  0  0  0  0  0  0  0  0  0  0
    3.4807    0.5001    0.0000 C   0  0  0  0  0  0  0  0  0  0  0  0
    8.8537    2.5536    0.0000 C   0  0  0  0  0  0  0  0  0  0  0  0
   11.4796   -1.0422    0.0000 C   0  0  0  0  0  0  0  0  0  0  0  0
    2.0000   -0.1523    0.0000 C   0  0  0  0  0  0  0  0  0  0  0  0
    8.8498    3.5536    0.0000 C   0  0  0  0  0  0  0  0  0  0  0  0
    7.8443   -0.0883    0.0000 H   0  0  0  0  0  0  0  0  0  0  0  0
    6.2520   -2.8690    0.0000 H   0  0  0  0  0  0  0  0  0  0  0  0
    8.1896   -2.6016    0.0000 H   0  0  0  0  0  0  0  0  0  0  0  0
    8.5881   -1.9113    0.0000 H   0  0  0  0  0  0  0  0  0  0  0  0
    9.4274   -0.2073    0.0000 H   0  0  0  0  0  0  0  0  0  0  0  0
    6.7130   -2.9939    0.0000 H   0  0  0  0  0  0  0  0  0  0  0  0
    7.5100   -2.9939    0.0000 H   0  0  0  0  0  0  0  0  0  0  0  0
    5.7561   -0.0145    0.0000 H   0  0  0  0  0  0  0  0  0  0  0  0
    4.9579   -0.0053    0.0000 H   0  0  0  0  0  0  0  0  0  0  0  0
    9.5056    0.4187    0.0000 H   0  0  0  0  0  0  0  0  0  0  0  0
    9.1091    1.1115    0.0000 H   0  0  0  0  0  0  0  0  0  0  0  0
    8.5335   -2.0559    0.0000 H   0  0  0  0  0  0  0  0  0  0  0  0
    9.3805   -1.8290    0.0000 H   0  0  0  0  0  0  0  0  0  0  0  0
    9.1535   -0.9821    0.0000 H   0  0  0  0  0  0  0  0  0  0  0  0
    6.8655   -0.0190    0.0000 H   0  0  0  0  0  0  0  0  0  0  0  0
    6.2455    0.6010    0.0000 H   0  0  0  0  0  0  0  0  0  0  0  0
    5.6255   -0.0190    0.0000 H   0  0  0  0  0  0  0  0  0  0  0  0
    7.4548    1.3572    0.0000 H   0  0  0  0  0  0  0  0  0  0  0  0
    3.9079   -1.3071    0.0000 H   0  0  0  0  0  0  0  0  0  0  0  0
    2.5350   -1.5040    0.0000 H   0  0  0  0  0  0  0  0  0  0  0  0
    3.9430    0.9132    0.0000 H   0  0  0  0  0  0  0  0  0  0  0  0
   11.1635   -1.5755    0.0000 H   0  0  0  0  0  0  0  0  0  0  0  0
   12.0130   -1.3583    0.0000 H   0  0  0  0  0  0  0  0  0  0  0  0
   11.7958   -0.5088    0.0000 H   0  0  0  0  0  0  0  0  0  0  0  0
    1.3832   -0.2148    0.0000 H   0  0  0  0  0  0  0  0  0  0  0  0
    9.4698    3.5560    0.0000 H   0  0  0  0  0  0  0  0  0  0  0  0
    8.8475    4.1736    0.0000 H   0  0  0  0  0  0  0  0  0  0  0  0
    8.2299    3.5512    0.0000 H   0  0  0  0  0  0  0  0  0  0  0  0
  1 22  1  0  0  0  0
  1 23  1  0  0  0  0
  2 21  1  0  0  0  0
  2 28  1  0  0  0  0
  3 17  2  0  0  0  0
  4 23  2  0  0  0  0
  5 24  1  0  0  0  0
  5 29  1  0  0  0  0
  6 24  2  0  0  0  0
  7 27  1  0  0  0  0
  7 30  1  0  0  0  0
  8 28  2  0  0  0  0
  9 11  1  0  0  0  0
  9 13  1  0  0  0  0
  9 14  1  0  0  0  0
  9 19  1  0  0  0  0
 10 11  1  0  0  0  0
 10 12  1  0  0  0  0
 10 16  1  0  0  0  0
 10 20  1  0  0  0  0
 11 17  1  0  0  0  0
 11 32  1  6  0  0  0
 12 15  1  0  0  0  0
 12 23  1  0  0  0  0
 12 33  1  6  0  0  0
 13 15  1  0  0  0  0
 13 34  1  0  0  0  0
 13 35  1  0  0  0  0
 14 18  1  0  0  0  0
 14 24  1  0  0  0  0
 14 36  1  0  0  0  0
 15 37  1  0  0  0  0
 15 38  1  0  0  0  0
 16 22  1  0  0  0  0
 16 39  1  0  0  0  0
 16 40  1  0  0  0  0
 17 21  1  0  0  0  0
 18 21  1  0  0  0  0
 18 41  1  0  0  0  0
 18 42  1  0  0  0  0
 19 43  1  0  0  0  0
 19 44  1  0  0  0  0
 19 45  1  0  0  0  0
 20 46  1  0  0  0  0
 20 47  1  0  0  0  0
 20 48  1  0  0  0  0
 21 49  1  0  0  0  0
 22 25  1  6  0  0  0
 22 50  1  0  0  0  0
 25 26  1  0  0  0  0
 25 27  2  0  0  0  0
 26 30  2  0  0  0  0
 26 51  1  0  0  0  0
 27 52  1  0  0  0  0
 28 31  1  0  0  0  0
 29 53  1  0  0  0  0
 29 54  1  0  0  0  0
 29 55  1  0  0  0  0
 30 56  1  0  0  0  0
 31 57  1  0  0  0  0
 31 58  1  0  0  0  0
 31 59  1  0  0  0  0
M  END
> <PUBCHEM_COMPOUND_CID>
11969624

> <PUBCHEM_COMPOUND_CANONICALIZED>
1

> <PUBCHEM_CACTVS_COMPLEXITY>
792

> <PUBCHEM_CACTVS_HBOND_ACCEPTOR>
8

> <PUBCHEM_CACTVS_HBOND_DONOR>
0

> <PUBCHEM_CACTVS_ROTATABLE_BOND>
5

> <PUBCHEM_CACTVS_SUBSKEYS>
AAADceB4PAAAAAAAAAAAAAAAAAAAASAAAAA0YIAAAAAAAADRgAAAGgAAAAAADxSgmAIyDIAABECIAqjSiAICCAAkIAAIiAFGCMgMJxYENQ6CGSCl4BEIKYPKzvDvgAAAAAAAAADAAAYAACAAAAAAAAAAAA==

> <PUBCHEM_IUPAC_OPENEYE_NAME>
methyl (2S,4aR,10aS)-9-acetoxy-2-(3-furyl)-6a,10b-dimethyl-4,10-dioxo-2,4a,5,6,7,8,9,10a-octahydro-1H-benzo[f]isochromene-7-carboxylate

> <PUBCHEM_IUPAC_CAS_NAME>
(2S,4aR,10aS)-9-acetyloxy-2-(3-furanyl)-6a,10b-dimethyl-4,10-dioxo-2,4a,5,6,7,8,9,10a-octahydro-1H-benzo[f][2]benzopyran-7-carboxylic acid methyl ester

> <PUBCHEM_IUPAC_NAME_MARKUP>
methyl (2<I>S</I>,4<I>a</I><I>R</I>,10<I>a</I><I>S</I>)-9-acetyloxy-2-(furan-3-yl)-6<I>a</I>,10<I>b</I>-dimethyl-4,10-dioxo-2,4<I>a</I>,5,6,7,8,9,10<I>a</I>-octahydro-1<I>H</I>-benzo[f]isochromene-7-carboxylate

> <PUBCHEM_IUPAC_NAME>
methyl (2S,4aR,10aS)-9-acetyloxy-2-(furan-3-yl)-6a,10b-dimethyl-4,10-dioxo-2,4a,5,6,7,8,9,10a-octahydro-1H-benzo[f]isochromene-7-carboxylate

> <PUBCHEM_IUPAC_SYSTEMATIC_NAME>
methyl (2S,4aR,10aS)-9-acetyloxy-2-(furan-3-yl)-6a,10b-dimethyl-4,10-bis(oxidanylidene)-2,4a,5,6,7,8,9,10a-octahydro-1H-benzo[f]isochromene-7-carboxylate

> <PUBCHEM_IUPAC_TRADITIONAL_NAME>
(2S,4aR,10aS)-9-acetoxy-2-(3-furyl)-4,10-diketo-6a,10b-dimethyl-2,4a,5,6,7,8,9,10a-octahydro-1H-benz[f]isochromene-7-carboxylic acid methyl ester

> <PUBCHEM_IUPAC_INCHI>
InChI=1S/C23H28O8/c1-12(24)30-16-9-15(20(26)28-4)22(2)7-5-14-21(27)31-17(13-6-8-29-11-13)10-23(14,3)19(22)18(16)25/h6,8,11,14-17,19H,5,7,9-10H2,1-4H3/t14-,15?,16?,17-,19-,22?,23?/m0/s1

> <PUBCHEM_IUPAC_INCHIKEY>
OBSYBRPAKCASQB-BPXDIVKOSA-N

> <PUBCHEM_XLOGP3_AA>
2.5

> <PUBCHEM_EXACT_MASS>
432.178418

> <PUBCHEM_MOLECULAR_FORMULA>
C23H28O8

> <PUBCHEM_MOLECULAR_WEIGHT>
432.5

> <PUBCHEM_OPENEYE_CAN_SMILES>
CC(=O)OC1CC(C2(CCC3C(=O)OC(CC3(C2C1=O)C)C4=COC=C4)C)C(=O)OC

> <PUBCHEM_OPENEYE_ISO_SMILES>
CC(=O)OC1CC(C2(CC[C@H]3C(=O)O[C@@H](CC3([C@H]2C1=O)C)C4=COC=C4)C)C(=O)OC

> <PUBCHEM_CACTVS_TPSA>
109

> <PUBCHEM_MONOISOTOPIC_WEIGHT>
432.178418

> <PUBCHEM_TOTAL_CHARGE>
0

> <PUBCHEM_HEAVY_ATOM_COUNT>
31

> <PUBCHEM_ATOM_DEF_STEREO_COUNT>
3

> <PUBCHEM_ATOM_UDEF_STEREO_COUNT>
4

> <PUBCHEM_BOND_DEF_STEREO_COUNT>
0

> <PUBCHEM_BOND_UDEF_STEREO_COUNT>
0

> <PUBCHEM_ISOTOPIC_ATOM_COUNT>
0

> <PUBCHEM_COMPONENT_COUNT>
1

> <PUBCHEM_CACTVS_TAUTO_COUNT>
-1

> <PUBCHEM_COORDINATE_TYPE>
1
5
255

> <PUBCHEM_BONDANNOTATIONS>
10  20  3
11  32  6
12  33  6
14  24  3
21  2  3
22  25  6
25  26  8
25  27  8
26  30  8
7  27  8
7  30  8
9  19  3

$$$$
11322970
  -OEChem-04052116402D

 30 31  0     0  0  0  0  0  0999 V2000
    7.2824    3.3103    0.0000 Cl  0  0  0  0  0  0  0  0  0  0  0  0
    2.2690    3.0000    0.0000 N   0  0  0  0  0  0  0  0  0  0  0  0
    4.0812    1.8047    0.0000 N   0  0  0  0  0  0  0  0  0  0  0  0
    1.4030    1.5000    0.0000 N   0  0  0  0  0  0  0  0  0  0  0  0
    4.0812    0.1953    0.0000 N   0  0  0  0  0  0  0  0  0  0  0  0
    2.2690    0.0000    0.0000 N   0  0  0  0  0  0  0  0  0  0  0  0
    1.4030    3.5000    0.0000 C   0  0  0  0  0  0  0  0  0  0  0  0
    3.1350    1.5000    0.0000 C   0  0  0  0  0  0  0  0  0  0  0  0
    2.2690    2.0000    0.0000 C   0  0  0  0  0  0  0  0  0  0  0  0
    1.4030    4.5000    0.0000 C   0  0  0  0  0  0  0  0  0  0  0  0
    3.1350    0.5000    0.0000 C   0  0  0  0  0  0  0  0  0  0  0  0
    2.2690    5.0000    0.0000 C   0  0  0  0  0  0  0  0  0  0  0  0
    0.5369    5.0000    0.0000 C   0  0  0  0  0  0  0  0  0  0  0  0
    4.6648    1.0000    0.0000 C   0  0  0  0  0  0  0  0  0  0  0  0
    2.2690    6.0000    0.0000 C   0  0  0  0  0  0  0  0  0  0  0  0
    0.5369    6.0000    0.0000 C   0  0  0  0  0  0  0  0  0  0  0  0
    1.4030    0.5000    0.0000 C   0  0  0  0  0  0  0  0  0  0  0  0
    1.4030    6.5000    0.0000 C   0  0  0  0  0  0  0  0  0  0  0  0
    0.7924    3.6077    0.0000 H   0  0  0  0  0  0  0  0  0  0  0  0
    1.1909    2.9174    0.0000 H   0  0  0  0  0  0  0  0  0  0  0  0
    2.8059    3.3100    0.0000 H   0  0  0  0  0  0  0  0  0  0  0  0
    4.2738    2.3940    0.0000 H   0  0  0  0  0  0  0  0  0  0  0  0
    2.8059    4.6900    0.0000 H   0  0  0  0  0  0  0  0  0  0  0  0
    0.0000    4.6900    0.0000 H   0  0  0  0  0  0  0  0  0  0  0  0
    5.2848    1.0000    0.0000 H   0  0  0  0  0  0  0  0  0  0  0  0
    2.8059    6.3100    0.0000 H   0  0  0  0  0  0  0  0  0  0  0  0
    0.0000    6.3100    0.0000 H   0  0  0  0  0  0  0  0  0  0  0  0
    0.8660    0.1900    0.0000 H   0  0  0  0  0  0  0  0  0  0  0  0
    1.4030    7.1200    0.0000 H   0  0  0  0  0  0  0  0  0  0  0  0
    8.2823    3.3103    0.0000 H   0  0  0  0  0  0  0  0  0  0  0  0
  1 30  1  0  0  0  0
  2  7  1  0  0  0  0
  2  9  1  0  0  0  0
  2 21  1  0  0  0  0
  3  8  1  0  0  0  0
  3 14  1  0  0  0  0
  3 22  1  0  0  0  0
  4  9  2  0  0  0  0
  4 17  1  0  0  0  0
  5 11  1  0  0  0  0
  5 14  2  0  0  0  0
  6 11  1  0  0  0  0
  6 17  2  0  0  0  0
  7 10  1  0  0  0  0
  7 19  1  0  0  0  0
  7 20  1  0  0  0  0
  8  9  1  0  0  0  0
  8 11  2  0  0  0  0
 10 12  2  0  0  0  0
 10 13  1  0  0  0  0
 12 15  1  0  0  0  0
 12 23  1  0  0  0  0
 13 16  2  0  0  0  0
 13 24  1  0  0  0  0
 14 25  1  0  0  0  0
 15 18  2  0  0  0  0
 15 26  1  0  0  0  0
 16 18  1  0  0  0  0
 16 27  1  0  0  0  0
 17 28  1  0  0  0  0
 18 29  1  0  0  0  0
M  END
> <PUBCHEM_COMPOUND_CID>
11322970

> <PUBCHEM_COMPOUND_CANONICALIZED>
1

> <PUBCHEM_CACTVS_COMPLEXITY>
241

> <PUBCHEM_CACTVS_HBOND_ACCEPTOR>
4

> <PUBCHEM_CACTVS_HBOND_DONOR>
3

> <PUBCHEM_CACTVS_ROTATABLE_BOND>
3

> <PUBCHEM_CACTVS_SUBSKEYS>
AAADccBzgAAEAAAAAAAAAAAAAAAAAWAAAAA8QAAAAAAAAFgB/AAAHAAQAAAADAjBHwQ18L7JkACgAyZjZACCgC2xEKAJ2aAoVJiIaCLA2VGUJAhogALIiCcQgAAOAAAAAAAAAAAAAAAAAAAAAAAAAAAAAA==

> <PUBCHEM_IUPAC_OPENEYE_NAME>
N-benzyl-7H-purin-6-amine;hydrochloride

> <PUBCHEM_IUPAC_CAS_NAME>
N-(phenylmethyl)-7H-purin-6-amine;hydrochloride

> <PUBCHEM_IUPAC_NAME_MARKUP>
<I>N</I>-benzyl-7<I>H</I>-purin-6-amine;hydrochloride

> <PUBCHEM_IUPAC_NAME>
N-benzyl-7H-purin-6-amine;hydrochloride

> <PUBCHEM_IUPAC_SYSTEMATIC_NAME>
N-(phenylmethyl)-7H-purin-6-amine;hydrochloride

> <PUBCHEM_IUPAC_TRADITIONAL_NAME>
benzyl(7H-purin-6-yl)amine;hydrochloride

> <PUBCHEM_IUPAC_INCHI>
InChI=1S/C12H11N5.ClH/c1-2-4-9(5-3-1)6-13-11-10-12(15-7-14-10)17-8-16-11;/h1-5,7-8H,6H2,(H2,13,14,15,16,17);1H

> <PUBCHEM_IUPAC_INCHIKEY>
VQVCNMLGIVVDOS-UHFFFAOYSA-N

> <PUBCHEM_EXACT_MASS>
261.078123

> <PUBCHEM_MOLECULAR_FORMULA>
C12H12ClN5

> <PUBCHEM_MOLECULAR_WEIGHT>
261.71

> <PUBCHEM_OPENEYE_CAN_SMILES>
C1=CC=C(C=C1)CNC2=NC=NC3=C2NC=N3.Cl

> <PUBCHEM_OPENEYE_ISO_SMILES>
C1=CC=C(C=C1)CNC2=NC=NC3=C2NC=N3.Cl

> <PUBCHEM_CACTVS_TPSA>
66.5

> <PUBCHEM_MONOISOTOPIC_WEIGHT>
261.078123

> <PUBCHEM_TOTAL_CHARGE>
0

> <PUBCHEM_HEAVY_ATOM_COUNT>
18

> <PUBCHEM_ATOM_DEF_STEREO_COUNT>
0

> <PUBCHEM_ATOM_UDEF_STEREO_COUNT>
0

> <PUBCHEM_BOND_DEF_STEREO_COUNT>
0

> <PUBCHEM_BOND_UDEF_STEREO_COUNT>
0

> <PUBCHEM_ISOTOPIC_ATOM_COUNT>
0

> <PUBCHEM_COMPONENT_COUNT>
2

> <PUBCHEM_CACTVS_TAUTO_COUNT>
-1

> <PUBCHEM_COORDINATE_TYPE>
1
5
255

> <PUBCHEM_BONDANNOTATIONS>
10  12  8
10  13  8
12  15  8
13  16  8
15  18  8
16  18  8
3  14  8
3  8  8
4  17  8
4  9  8
5  11  8
5  14  8
6  11  8
6  17  8
8  11  8
8  9  8

$$$$
11306073
  -OEChem-04052116402D

 63 60  0     1  0  0  0  0  0999 V2000
   11.1972   -0.4050    0.0000 Ca  0  2  0  0  0  0  0  0  0  0  0  0
    5.1350    1.0950    0.0000 O   0  0  0  0  0  0  0  0  0  0  0  0
   17.2594    1.0950    0.0000 O   0  0  0  0  0  0  0  0  0  0  0  0
    2.5369   -0.4050    0.0000 O   0  0  0  0  0  0  0  0  0  0  0  0
   19.8574   -0.4050    0.0000 O   0  0  0  0  0  0  0  0  0  0  0  0
    6.0010   -1.4050    0.0000 O   0  0  0  0  0  0  0  0  0  0  0  0
   16.3933   -1.4050    0.0000 O   0  0  0  0  0  0  0  0  0  0  0  0
   10.3312    0.0950    0.0000 O   0  5  0  0  0  0  0  0  0  0  0  0
   12.0632    0.0950    0.0000 O   0  5  0  0  0  0  0  0  0  0  0  0
    9.4651   -1.4050    0.0000 O   0  0  0  0  0  0  0  0  0  0  0  0
   12.9292   -1.4050    0.0000 O   0  0  0  0  0  0  0  0  0  0  0  0
    6.8671    0.0950    0.0000 N   0  0  0  0  0  0  0  0  0  0  0  0
   15.5273    0.0950    0.0000 N   0  0  0  0  0  0  0  0  0  0  0  0
    4.2690   -0.4050    0.0000 C   0  0  0  0  0  0  0  0  0  0  0  0
   18.1254   -0.4050    0.0000 C   0  0  0  0  0  0  0  0  0  0  0  0
    5.1350    0.0950    0.0000 C   0  0  2  0  0  0  0  0  0  0  0  0
   17.2594    0.0950    0.0000 C   0  0  2  0  0  0  0  0  0  0  0  0
    3.4030   -0.9050    0.0000 C   0  0  0  0  0  0  0  0  0  0  0  0
   18.9914   -0.9050    0.0000 C   0  0  0  0  0  0  0  0  0  0  0  0
    3.7690    0.4610    0.0000 C   0  0  0  0  0  0  0  0  0  0  0  0
    4.7690   -1.2710    0.0000 C   0  0  0  0  0  0  0  0  0  0  0  0
   18.6254    0.4610    0.0000 C   0  0  0  0  0  0  0  0  0  0  0  0
   17.6254   -1.2710    0.0000 C   0  0  0  0  0  0  0  0  0  0  0  0
    6.0010   -0.4050    0.0000 C   0  0  0  0  0  0  0  0  0  0  0  0
   16.3933   -0.4050    0.0000 C   0  0  0  0  0  0  0  0  0  0  0  0
    7.7331   -0.4050    0.0000 C   0  0  0  0  0  0  0  0  0  0  0  0
   14.6613   -0.4050    0.0000 C   0  0  0  0  0  0  0  0  0  0  0  0
    8.5991    0.0950    0.0000 C   0  0  0  0  0  0  0  0  0  0  0  0
   13.7953    0.0950    0.0000 C   0  0  0  0  0  0  0  0  0  0  0  0
    9.4651   -0.4050    0.0000 C   0  0  0  0  0  0  0  0  0  0  0  0
   12.9292   -0.4050    0.0000 C   0  0  0  0  0  0  0  0  0  0  0  0
    5.6720    0.4050    0.0000 H   0  0  0  0  0  0  0  0  0  0  0  0
   16.7224    0.4050    0.0000 H   0  0  0  0  0  0  0  0  0  0  0  0
    3.0044   -1.3800    0.0000 H   0  0  0  0  0  0  0  0  0  0  0  0
    3.8015   -1.3800    0.0000 H   0  0  0  0  0  0  0  0  0  0  0  0
   18.5929   -1.3800    0.0000 H   0  0  0  0  0  0  0  0  0  0  0  0
   19.3899   -1.3800    0.0000 H   0  0  0  0  0  0  0  0  0  0  0  0
    4.3059    0.7710    0.0000 H   0  0  0  0  0  0  0  0  0  0  0  0
    3.4590    0.9980    0.0000 H   0  0  0  0  0  0  0  0  0  0  0  0
    3.2320    0.1510    0.0000 H   0  0  0  0  0  0  0  0  0  0  0  0
    4.2320   -1.5810    0.0000 H   0  0  0  0  0  0  0  0  0  0  0  0
    5.0790   -1.8080    0.0000 H   0  0  0  0  0  0  0  0  0  0  0  0
    5.3059   -0.9610    0.0000 H   0  0  0  0  0  0  0  0  0  0  0  0
   19.1623    0.1510    0.0000 H   0  0  0  0  0  0  0  0  0  0  0  0
   18.9354    0.9980    0.0000 H   0  0  0  0  0  0  0  0  0  0  0  0
   18.0885    0.7710    0.0000 H   0  0  0  0  0  0  0  0  0  0  0  0
   17.0885   -0.9610    0.0000 H   0  0  0  0  0  0  0  0  0  0  0  0
   17.3154   -1.8080    0.0000 H   0  0  0  0  0  0  0  0  0  0  0  0
   18.1623   -1.5810    0.0000 H   0  0  0  0  0  0  0  0  0  0  0  0
    5.6720    1.4050    0.0000 H   0  0  0  0  0  0  0  0  0  0  0  0
   17.7963    1.4050    0.0000 H   0  0  0  0  0  0  0  0  0  0  0  0
    6.8671    0.7150    0.0000 H   0  0  0  0  0  0  0  0  0  0  0  0
   15.5273    0.7150    0.0000 H   0  0  0  0  0  0  0  0  0  0  0  0
    2.0000   -0.7150    0.0000 H   0  0  0  0  0  0  0  0  0  0  0  0
   20.3944   -0.7150    0.0000 H   0  0  0  0  0  0  0  0  0  0  0  0
    7.3346   -0.8799    0.0000 H   0  0  0  0  0  0  0  0  0  0  0  0
    8.1316   -0.8799    0.0000 H   0  0  0  0  0  0  0  0  0  0  0  0
   14.2628   -0.8799    0.0000 H   0  0  0  0  0  0  0  0  0  0  0  0
   15.0598   -0.8799    0.0000 H   0  0  0  0  0  0  0  0  0  0  0  0
    8.9976    0.5699    0.0000 H   0  0  0  0  0  0  0  0  0  0  0  0
    8.2006    0.5699    0.0000 H   0  0  0  0  0  0  0  0  0  0  0  0
   14.1938    0.5699    0.0000 H   0  0  0  0  0  0  0  0  0  0  0  0
   13.3967    0.5699    0.0000 H   0  0  0  0  0  0  0  0  0  0  0  0
 16  2  1  1  0  0  0
  2 50  1  0  0  0  0
 17  3  1  6  0  0  0
  3 51  1  0  0  0  0
  4 18  1  0  0  0  0
  4 54  1  0  0  0  0
  5 19  1  0  0  0  0
  5 55  1  0  0  0  0
  6 24  2  0  0  0  0
  7 25  2  0  0  0  0
  8 30  1  0  0  0  0
  9 31  1  0  0  0  0
 10 30  2  0  0  0  0
 11 31  2  0  0  0  0
 12 24  1  0  0  0  0
 12 26  1  0  0  0  0
 12 52  1  0  0  0  0
 13 25  1  0  0  0  0
 13 27  1  0  0  0  0
 13 53  1  0  0  0  0
 14 16  1  0  0  0  0
 14 18  1  0  0  0  0
 14 20  1  0  0  0  0
 14 21  1  0  0  0  0
 15 17  1  0  0  0  0
 15 19  1  0  0  0  0
 15 22  1  0  0  0  0
 15 23  1  0  0  0  0
 16 24  1  0  0  0  0
 16 32  1  0  0  0  0
 17 25  1  0  0  0  0
 17 33  1  0  0  0  0
 18 34  1  0  0  0  0
 18 35  1  0  0  0  0
 19 36  1  0  0  0  0
 19 37  1  0  0  0  0
 20 38  1  0  0  0  0
 20 39  1  0  0  0  0
 20 40  1  0  0  0  0
 21 41  1  0  0  0  0
 21 42  1  0  0  0  0
 21 43  1  0  0  0  0
 22 44  1  0  0  0  0
 22 45  1  0  0  0  0
 22 46  1  0  0  0  0
 23 47  1  0  0  0  0
 23 48  1  0  0  0  0
 23 49  1  0  0  0  0
 26 28  1  0  0  0  0
 26 56  1  0  0  0  0
 26 57  1  0  0  0  0
 27 29  1  0  0  0  0
 27 58  1  0  0  0  0
 27 59  1  0  0  0  0
 28 30  1  0  0  0  0
 28 60  1  0  0  0  0
 28 61  1  0  0  0  0
 29 31  1  0  0  0  0
 29 62  1  0  0  0  0
 29 63  1  0  0  0  0
M  CHG  3   1   2   8  -1   9  -1
M  END
> <PUBCHEM_COMPOUND_CID>
11306073

> <PUBCHEM_COMPOUND_CANONICALIZED>
1

> <PUBCHEM_CACTVS_COMPLEXITY>
534

> <PUBCHEM_CACTVS_HBOND_ACCEPTOR>
10

> <PUBCHEM_CACTVS_HBOND_DONOR>
6

> <PUBCHEM_CACTVS_ROTATABLE_BOND>
14

> <PUBCHEM_CACTVS_SUBSKEYS>
AAADcfB7PAAAAAgAAAAAAAAAAAAAAAAAAAAAAAAAAAAAAAAAAAAAHgAQCAAADhThgAYCCALAAgAIAAGQGAIAAAAAAAAAAIFIAAACEBgAgAAEQAAHFgCQAAAiAAAJAAAAAAAAAAAAAAAAAAAAAAAAAAAAAA==

> <PUBCHEM_IUPAC_OPENEYE_NAME>
calcium;3-[[(2R)-2,4-dihydroxy-3,3-dimethyl-butanoyl]amino]propanoate

> <PUBCHEM_IUPAC_CAS_NAME>
calcium;3-[[(2R)-2,4-dihydroxy-3,3-dimethyl-1-oxobutyl]amino]propanoate

> <PUBCHEM_IUPAC_NAME_MARKUP>
calcium;3-[[(2<I>R</I>)-2,4-dihydroxy-3,3-dimethylbutanoyl]amino]propanoate

> <PUBCHEM_IUPAC_NAME>
calcium;3-[[(2R)-2,4-dihydroxy-3,3-dimethylbutanoyl]amino]propanoate

> <PUBCHEM_IUPAC_SYSTEMATIC_NAME>
calcium;3-[[(2R)-3,3-dimethyl-2,4-bis(oxidanyl)butanoyl]amino]propanoate

> <PUBCHEM_IUPAC_TRADITIONAL_NAME>
calcium;3-[[(2R)-2,4-dihydroxy-3,3-dimethyl-butanoyl]amino]propionate

> <PUBCHEM_IUPAC_INCHI>
InChI=1S/2C9H17NO5.Ca/c2*1-9(2,5-11)7(14)8(15)10-4-3-6(12)13;/h2*7,11,14H,3-5H2,1-2H3,(H,10,15)(H,12,13);/q;;+2/p-2/t2*7-;/m00./s1

> <PUBCHEM_IUPAC_INCHIKEY>
FAPWYRCQGJNNSJ-UBKPKTQASA-L

> <PUBCHEM_EXACT_MASS>
476.168286

> <PUBCHEM_MOLECULAR_FORMULA>
C18H32CaN2O10

> <PUBCHEM_MOLECULAR_WEIGHT>
476.5

> <PUBCHEM_OPENEYE_CAN_SMILES>
CC(C)(CO)C(C(=O)NCCC(=O)[O-])O.CC(C)(CO)C(C(=O)NCCC(=O)[O-])O.[Ca+2]

> <PUBCHEM_OPENEYE_ISO_SMILES>
CC(C)(CO)[C@H](C(=O)NCCC(=O)[O-])O.CC(C)(CO)[C@H](C(=O)NCCC(=O)[O-])O.[Ca+2]

> <PUBCHEM_CACTVS_TPSA>
219

> <PUBCHEM_MONOISOTOPIC_WEIGHT>
476.168286

> <PUBCHEM_TOTAL_CHARGE>
0

> <PUBCHEM_HEAVY_ATOM_COUNT>
31

> <PUBCHEM_ATOM_DEF_STEREO_COUNT>
2

> <PUBCHEM_ATOM_UDEF_STEREO_COUNT>
0

> <PUBCHEM_BOND_DEF_STEREO_COUNT>
0

> <PUBCHEM_BOND_UDEF_STEREO_COUNT>
0

> <PUBCHEM_ISOTOPIC_ATOM_COUNT>
0

> <PUBCHEM_COMPONENT_COUNT>
3

> <PUBCHEM_CACTVS_TAUTO_COUNT>
-1

> <PUBCHEM_NONSTANDARDBOND>
1  8  7
1  9  7

> <PUBCHEM_COORDINATE_TYPE>
1
5
255

> <PUBCHEM_BONDANNOTATIONS>
16  2  5
17  3  6

$$$$
10695961
  -OEChem-04052116402D

 47 48  0     1  0  0  0  0  0999 V2000
    6.3301   -0.8240    0.0000 S   0  0  0  0  0  0  0  0  0  0  0  0
   13.1643   -1.3196    0.0000 S   0  0  0  0  0  0  0  0  0  0  0  0
    5.4641    3.6760    0.0000 Na  0  3  0  0  0  0  0  0  0  0  0  0
    8.9101    1.3887    0.0000 O   0  0  0  0  0  0  0  0  0  0  0  0
    3.7320    0.6760    0.0000 O   0  0  0  0  0  0  0  0  0  0  0  0
    5.4641    2.6760    0.0000 O   0  5  0  0  0  0  0  0  0  0  0  0
    7.1962    2.6760    0.0000 O   0  0  0  0  0  0  0  0  0  0  0  0
   10.1373    0.1855    0.0000 O   0  0  0  0  0  0  0  0  0  0  0  0
    9.3549   -2.7106    0.0000 O   0  0  0  0  0  0  0  0  0  0  0  0
    2.8660    2.1760    0.0000 O   0  0  0  0  0  0  0  0  0  0  0  0
    7.1962    0.6760    0.0000 N   0  0  0  0  0  0  0  0  0  0  0  0
    8.9101   -1.0367    0.0000 N   0  0  0  0  0  0  0  0  0  0  0  0
   10.3214   -2.4538    0.0000 N   0  0  0  0  0  0  0  0  0  0  0  0
   11.9089   -0.2987    0.0000 N   0  0  0  0  0  0  0  0  0  0  0  0
   13.5384    0.4227    0.0000 N   0  0  0  0  0  0  0  0  0  0  0  0
    7.1962   -0.3240    0.0000 C   0  0  1  0  0  0  0  0  0  0  0  0
    8.2044   -0.3281    0.0000 C   0  0  1  0  0  0  0  0  0  0  0  0
    8.2044    0.6802    0.0000 C   0  0  0  0  0  0  0  0  0  0  0  0
    6.3301    1.1760    0.0000 C   0  0  0  0  0  0  0  0  0  0  0  0
    5.4641    0.6760    0.0000 C   0  0  0  0  0  0  0  0  0  0  0  0
    5.4641   -0.3240    0.0000 C   0  0  0  0  0  0  0  0  0  0  0  0
    4.5981    1.1760    0.0000 C   0  0  0  0  0  0  0  0  0  0  0  0
    6.3301    2.1760    0.0000 C   0  0  0  0  0  0  0  0  0  0  0  0
    9.8765   -0.7798    0.0000 C   0  0  0  0  0  0  0  0  0  0  0  0
   10.5822   -1.4884    0.0000 C   0  0  0  0  0  0  0  0  0  0  0  0
   11.5486   -1.2316    0.0000 C   0  0  0  0  0  0  0  0  0  0  0  0
    2.8660    1.1760    0.0000 C   0  0  0  0  0  0  0  0  0  0  0  0
   12.3245   -1.8625    0.0000 C   0  0  0  0  0  0  0  0  0  0  0  0
    2.0000    0.6760    0.0000 C   0  0  0  0  0  0  0  0  0  0  0  0
   12.9075   -0.3531    0.0000 C   0  0  0  0  0  0  0  0  0  0  0  0
    9.0941   -3.6760    0.0000 C   0  0  0  0  0  0  0  0  0  0  0  0
    7.4145   -1.1455    0.0000 H   0  0  0  0  0  0  0  0  0  0  0  0
    7.9654   -0.9002    0.0000 H   0  0  0  0  0  0  0  0  0  0  0  0
    4.8535   -0.2163    0.0000 H   0  0  0  0  0  0  0  0  0  0  0  0
    5.2520   -0.9066    0.0000 H   0  0  0  0  0  0  0  0  0  0  0  0
    8.7484   -1.6352    0.0000 H   0  0  0  0  0  0  0  0  0  0  0  0
    4.9966    1.6510    0.0000 H   0  0  0  0  0  0  0  0  0  0  0  0
    4.1996    1.6510    0.0000 H   0  0  0  0  0  0  0  0  0  0  0  0
   12.2908   -2.4816    0.0000 H   0  0  0  0  0  0  0  0  0  0  0  0
    1.6900    1.2130    0.0000 H   0  0  0  0  0  0  0  0  0  0  0  0
    1.4631    0.3660    0.0000 H   0  0  0  0  0  0  0  0  0  0  0  0
    2.3100    0.1391    0.0000 H   0  0  0  0  0  0  0  0  0  0  0  0
    8.4956   -3.5143    0.0000 H   0  0  0  0  0  0  0  0  0  0  0  0
    8.9324   -4.2746    0.0000 H   0  0  0  0  0  0  0  0  0  0  0  0
    9.6927   -3.8377    0.0000 H   0  0  0  0  0  0  0  0  0  0  0  0
   14.1505    0.3245    0.0000 H   0  0  0  0  0  0  0  0  0  0  0  0
   13.3174    1.0020    0.0000 H   0  0  0  0  0  0  0  0  0  0  0  0
  1 16  1  0  0  0  0
  1 21  1  0  0  0  0
  2 28  1  0  0  0  0
  2 30  1  0  0  0  0
  4 18  2  0  0  0  0
  5 22  1  0  0  0  0
  5 27  1  0  0  0  0
  6 23  1  0  0  0  0
  7 23  2  0  0  0  0
  8 24  2  0  0  0  0
  9 13  1  0  0  0  0
  9 31  1  0  0  0  0
 10 27  2  0  0  0  0
 11 16  1  0  0  0  0
 11 18  1  0  0  0  0
 11 19  1  0  0  0  0
 17 12  1  1  0  0  0
 12 24  1  0  0  0  0
 12 36  1  0  0  0  0
 13 25  2  0  0  0  0
 14 26  1  0  0  0  0
 14 30  2  0  0  0  0
 15 30  1  0  0  0  0
 15 46  1  0  0  0  0
 15 47  1  0  0  0  0
 16 17  1  0  0  0  0
 16 32  1  6  0  0  0
 17 18  1  0  0  0  0
 17 33  1  0  0  0  0
 19 20  2  0  0  0  0
 19 23  1  0  0  0  0
 20 21  1  0  0  0  0
 20 22  1  0  0  0  0
 21 34  1  0  0  0  0
 21 35  1  0  0  0  0
 22 37  1  0  0  0  0
 22 38  1  0  0  0  0
 24 25  1  0  0  0  0
 25 26  1  0  0  0  0
 26 28  2  0  0  0  0
 27 29  1  0  0  0  0
 28 39  1  0  0  0  0
 29 40  1  0  0  0  0
 29 41  1  0  0  0  0
 29 42  1  0  0  0  0
 31 43  1  0  0  0  0
 31 44  1  0  0  0  0
 31 45  1  0  0  0  0
M  CHG  2   3   1   6  -1
M  END
> <PUBCHEM_COMPOUND_CID>
10695961

> <PUBCHEM_COMPOUND_CANONICALIZED>
1

> <PUBCHEM_CACTVS_COMPLEXITY>
839

> <PUBCHEM_CACTVS_HBOND_ACCEPTOR>
12

> <PUBCHEM_CACTVS_HBOND_DONOR>
2

> <PUBCHEM_CACTVS_ROTATABLE_BOND>
8

> <PUBCHEM_CACTVS_SUBSKEYS>
AAADceB7uCBgAAAAAAAAAAAAAABYAWAAAAAgAAAAAAAQAAABgAAAHgQUAAAADCjl1gajmRPYFAisAwXyfAAA8KlhCjkACJW4IFiCZJgg5CEWEAAAFgKwISAAAAAAAAAAAAAAAAAAAAAAAAAAAAAAAAAAAA==

> <PUBCHEM_IUPAC_OPENEYE_NAME>
sodium;(6R,7R)-3-(acetoxymethyl)-7-[[(2Z)-2-(2-aminothiazol-4-yl)-2-methoxyimino-acetyl]amino]-8-oxo-5-thia-1-azabicyclo[4.2.0]oct-2-ene-2-carboxylate

> <PUBCHEM_IUPAC_CAS_NAME>
sodium;(6R,7R)-3-(acetyloxymethyl)-7-[[(2Z)-2-(2-amino-4-thiazolyl)-2-methoxyimino-1-oxoethyl]amino]-8-oxo-5-thia-1-azabicyclo[4.2.0]oct-2-ene-2-carboxylate

> <PUBCHEM_IUPAC_NAME_MARKUP>
sodium;(6<I>R</I>,7<I>R</I>)-3-(acetyloxymethyl)-7-[[(2<I>Z</I>)-2-(2-amino-1,3-thiazol-4-yl)-2-methoxyiminoacetyl]amino]-8-oxo-5-thia-1-azabicyclo[4.2.0]oct-2-ene-2-carboxylate

> <PUBCHEM_IUPAC_NAME>
sodium;(6R,7R)-3-(acetyloxymethyl)-7-[[(2Z)-2-(2-amino-1,3-thiazol-4-yl)-2-methoxyiminoacetyl]amino]-8-oxo-5-thia-1-azabicyclo[4.2.0]oct-2-ene-2-carboxylate

> <PUBCHEM_IUPAC_SYSTEMATIC_NAME>
sodium;(6R,7R)-3-(acetyloxymethyl)-7-[[(2Z)-2-(2-azanyl-1,3-thiazol-4-yl)-2-methoxyimino-ethanoyl]amino]-8-oxidanylidene-5-thia-1-azabicyclo[4.2.0]oct-2-ene-2-carboxylate

> <PUBCHEM_IUPAC_TRADITIONAL_NAME>
sodium;(6R,7R)-3-(acetoxymethyl)-7-[[(2Z)-2-(2-aminothiazol-4-yl)-2-methyloximino-acetyl]amino]-8-keto-5-thia-1-azabicyclo[4.2.0]oct-2-ene-2-carboxylate

> <PUBCHEM_IUPAC_INCHI>
InChI=1S/C16H17N5O7S2.Na/c1-6(22)28-3-7-4-29-14-10(13(24)21(14)11(7)15(25)26)19-12(23)9(20-27-2)8-5-30-16(17)18-8;/h5,10,14H,3-4H2,1-2H3,(H2,17,18)(H,19,23)(H,25,26);/q;+1/p-1/b20-9-;/t10-,14-;/m1./s1

> <PUBCHEM_IUPAC_INCHIKEY>
AZZMGZXNTDTSME-JUZDKLSSSA-M

> <PUBCHEM_EXACT_MASS>
477.038885

> <PUBCHEM_MOLECULAR_FORMULA>
C16H16N5NaO7S2

> <PUBCHEM_MOLECULAR_WEIGHT>
477.5

> <PUBCHEM_OPENEYE_CAN_SMILES>
CC(=O)OCC1=C(N2C(C(C2=O)NC(=O)C(=NOC)C3=CSC(=N3)N)SC1)C(=O)[O-].[Na+]

> <PUBCHEM_OPENEYE_ISO_SMILES>
CC(=O)OCC1=C(N2[C@@H]([C@@H](C2=O)NC(=O)/C(=N\OC)/C3=CSC(=N3)N)SC1)C(=O)[O-].[Na+]

> <PUBCHEM_CACTVS_TPSA>
230

> <PUBCHEM_MONOISOTOPIC_WEIGHT>
477.038885

> <PUBCHEM_TOTAL_CHARGE>
0

> <PUBCHEM_HEAVY_ATOM_COUNT>
31

> <PUBCHEM_ATOM_DEF_STEREO_COUNT>
2

> <PUBCHEM_ATOM_UDEF_STEREO_COUNT>
0

> <PUBCHEM_BOND_DEF_STEREO_COUNT>
1

> <PUBCHEM_BOND_UDEF_STEREO_COUNT>
0

> <PUBCHEM_ISOTOPIC_ATOM_COUNT>
0

> <PUBCHEM_COMPONENT_COUNT>
2

> <PUBCHEM_CACTVS_TAUTO_COUNT>
-1

> <PUBCHEM_NONSTANDARDBOND>
3  6  7

> <PUBCHEM_COORDINATE_TYPE>
1
5
255

> <PUBCHEM_BONDANNOTATIONS>
17  12  5
14  26  8
14  30  8
16  32  6
2  28  8
2  30  8
26  28  8

$$$$
9953821
  -OEChem-04052116402D

 64 65  0     1  0  0  0  0  0999 V2000
    7.1962   -0.5000    0.0000 O   0  0  0  0  0  0  0  0  0  0  0  0
    3.7320    0.5000    0.0000 O   0  0  0  0  0  0  0  0  0  0  0  0
    2.8660   -4.0000    0.0000 O   0  0  0  0  0  0  0  0  0  0  0  0
    8.0622    4.0000    0.0000 O   0  0  0  0  0  0  0  0  0  0  0  0
    4.5981   -5.0000    0.0000 O   0  0  0  0  0  0  0  0  0  0  0  0
    6.3301    5.0000    0.0000 O   0  0  0  0  0  0  0  0  0  0  0  0
    5.4641   -0.5000    0.0000 C   0  0  1  0  0  0  0  0  0  0  0  0
    5.4641    0.5000    0.0000 C   0  0  1  0  0  0  0  0  0  0  0  0
    4.5981   -1.0000    0.0000 C   0  0  0  0  0  0  0  0  0  0  0  0
    6.3301    1.0000    0.0000 C   0  0  0  0  0  0  0  0  0  0  0  0
    6.3301   -1.0000    0.0000 C   0  0  0  0  0  0  0  0  0  0  0  0
    4.5981    1.0000    0.0000 C   0  0  0  0  0  0  0  0  0  0  0  0
    4.5981   -2.0000    0.0000 C   0  0  0  0  0  0  0  0  0  0  0  0
    6.3301    2.0000    0.0000 C   0  0  0  0  0  0  0  0  0  0  0  0
    3.7320   -2.5000    0.0000 C   0  0  0  0  0  0  0  0  0  0  0  0
    7.1962    2.5000    0.0000 C   0  0  0  0  0  0  0  0  0  0  0  0
    5.4641   -2.5000    0.0000 C   0  0  0  0  0  0  0  0  0  0  0  0
    5.4641    2.5000    0.0000 C   0  0  0  0  0  0  0  0  0  0  0  0
    3.7320   -3.5000    0.0000 C   0  0  0  0  0  0  0  0  0  0  0  0
    7.1962    3.5000    0.0000 C   0  0  0  0  0  0  0  0  0  0  0  0
    5.4641   -3.5000    0.0000 C   0  0  0  0  0  0  0  0  0  0  0  0
    5.4641    3.5000    0.0000 C   0  0  0  0  0  0  0  0  0  0  0  0
    8.0622   -1.0000    0.0000 C   0  0  0  0  0  0  0  0  0  0  0  0
    2.8660    1.0000    0.0000 C   0  0  0  0  0  0  0  0  0  0  0  0
    4.5981   -4.0000    0.0000 C   0  0  0  0  0  0  0  0  0  0  0  0
    6.3301    4.0000    0.0000 C   0  0  0  0  0  0  0  0  0  0  0  0
    2.0000   -3.5000    0.0000 C   0  0  0  0  0  0  0  0  0  0  0  0
    8.9282    3.5000    0.0000 C   0  0  0  0  0  0  0  0  0  0  0  0
    5.4641   -5.5000    0.0000 C   0  0  0  0  0  0  0  0  0  0  0  0
    5.4641    5.5000    0.0000 C   0  0  0  0  0  0  0  0  0  0  0  0
    5.4641   -1.1200    0.0000 H   0  0  0  0  0  0  0  0  0  0  0  0
    5.4641    1.1200    0.0000 H   0  0  0  0  0  0  0  0  0  0  0  0
    4.3860   -0.4174    0.0000 H   0  0  0  0  0  0  0  0  0  0  0  0
    3.9875   -1.1077    0.0000 H   0  0  0  0  0  0  0  0  0  0  0  0
    6.5422    0.4174    0.0000 H   0  0  0  0  0  0  0  0  0  0  0  0
    6.9407    1.1077    0.0000 H   0  0  0  0  0  0  0  0  0  0  0  0
    5.9316   -1.4750    0.0000 H   0  0  0  0  0  0  0  0  0  0  0  0
    6.7287   -1.4750    0.0000 H   0  0  0  0  0  0  0  0  0  0  0  0
    4.9966    1.4750    0.0000 H   0  0  0  0  0  0  0  0  0  0  0  0
    4.1996    1.4750    0.0000 H   0  0  0  0  0  0  0  0  0  0  0  0
    3.1951   -2.1900    0.0000 H   0  0  0  0  0  0  0  0  0  0  0  0
    7.7331    2.1900    0.0000 H   0  0  0  0  0  0  0  0  0  0  0  0
    6.0010   -2.1900    0.0000 H   0  0  0  0  0  0  0  0  0  0  0  0
    4.9272    2.1900    0.0000 H   0  0  0  0  0  0  0  0  0  0  0  0
    6.0010   -3.8100    0.0000 H   0  0  0  0  0  0  0  0  0  0  0  0
    4.9272    3.8100    0.0000 H   0  0  0  0  0  0  0  0  0  0  0  0
    7.7522   -1.5369    0.0000 H   0  0  0  0  0  0  0  0  0  0  0  0
    8.5991   -1.3100    0.0000 H   0  0  0  0  0  0  0  0  0  0  0  0
    8.3722   -0.4631    0.0000 H   0  0  0  0  0  0  0  0  0  0  0  0
    3.1760    1.5369    0.0000 H   0  0  0  0  0  0  0  0  0  0  0  0
    2.3291    1.3100    0.0000 H   0  0  0  0  0  0  0  0  0  0  0  0
    2.5560    0.4631    0.0000 H   0  0  0  0  0  0  0  0  0  0  0  0
    2.3100   -2.9631    0.0000 H   0  0  0  0  0  0  0  0  0  0  0  0
    1.4631   -3.1900    0.0000 H   0  0  0  0  0  0  0  0  0  0  0  0
    1.6900   -4.0369    0.0000 H   0  0  0  0  0  0  0  0  0  0  0  0
    8.6182    2.9631    0.0000 H   0  0  0  0  0  0  0  0  0  0  0  0
    9.4651    3.1900    0.0000 H   0  0  0  0  0  0  0  0  0  0  0  0
    9.2382    4.0369    0.0000 H   0  0  0  0  0  0  0  0  0  0  0  0
    5.1541   -6.0369    0.0000 H   0  0  0  0  0  0  0  0  0  0  0  0
    6.0010   -5.8100    0.0000 H   0  0  0  0  0  0  0  0  0  0  0  0
    5.7741   -4.9631    0.0000 H   0  0  0  0  0  0  0  0  0  0  0  0
    5.7741    6.0369    0.0000 H   0  0  0  0  0  0  0  0  0  0  0  0
    4.9272    5.8100    0.0000 H   0  0  0  0  0  0  0  0  0  0  0  0
    5.1541    4.9631    0.0000 H   0  0  0  0  0  0  0  0  0  0  0  0
  1 11  1  0  0  0  0
  1 23  1  0  0  0  0
  2 12  1  0  0  0  0
  2 24  1  0  0  0  0
  3 19  1  0  0  0  0
  3 27  1  0  0  0  0
  4 20  1  0  0  0  0
  4 28  1  0  0  0  0
  5 25  1  0  0  0  0
  5 29  1  0  0  0  0
  6 26  1  0  0  0  0
  6 30  1  0  0  0  0
  7  8  1  0  0  0  0
  7  9  1  0  0  0  0
  7 11  1  6  0  0  0
  7 31  1  0  0  0  0
  8 10  1  0  0  0  0
  8 12  1  6  0  0  0
  8 32  1  0  0  0  0
  9 13  1  0  0  0  0
  9 33  1  0  0  0  0
  9 34  1  0  0  0  0
 10 14  1  0  0  0  0
 10 35  1  0  0  0  0
 10 36  1  0  0  0  0
 11 37  1  0  0  0  0
 11 38  1  0  0  0  0
 12 39  1  0  0  0  0
 12 40  1  0  0  0  0
 13 15  2  0  0  0  0
 13 17  1  0  0  0  0
 14 16  2  0  0  0  0
 14 18  1  0  0  0  0
 15 19  1  0  0  0  0
 15 41  1  0  0  0  0
 16 20  1  0  0  0  0
 16 42  1  0  0  0  0
 17 21  2  0  0  0  0
 17 43  1  0  0  0  0
 18 22  2  0  0  0  0
 18 44  1  0  0  0  0
 19 25  2  0  0  0  0
 20 26  2  0  0  0  0
 21 25  1  0  0  0  0
 21 45  1  0  0  0  0
 22 26  1  0  0  0  0
 22 46  1  0  0  0  0
 23 47  1  0  0  0  0
 23 48  1  0  0  0  0
 23 49  1  0  0  0  0
 24 50  1  0  0  0  0
 24 51  1  0  0  0  0
 24 52  1  0  0  0  0
 27 53  1  0  0  0  0
 27 54  1  0  0  0  0
 27 55  1  0  0  0  0
 28 56  1  0  0  0  0
 28 57  1  0  0  0  0
 28 58  1  0  0  0  0
 29 59  1  0  0  0  0
 29 60  1  0  0  0  0
 29 61  1  0  0  0  0
 30 62  1  0  0  0  0
 30 63  1  0  0  0  0
 30 64  1  0  0  0  0
M  END
> <PUBCHEM_COMPOUND_CID>
9953821

> <PUBCHEM_COMPOUND_CANONICALIZED>
1

> <PUBCHEM_CACTVS_COMPLEXITY>
407

> <PUBCHEM_CACTVS_HBOND_ACCEPTOR>
6

> <PUBCHEM_CACTVS_HBOND_DONOR>
0

> <PUBCHEM_CACTVS_ROTATABLE_BOND>
13

> <PUBCHEM_CACTVS_SUBSKEYS>
AAADcfB4OAAAAAAAAAAAAAAAAAAAAAAAAAAwYAAAAAAAAAABQAAAGgAAAAAADQSgmAIyBoAABACAAiBCAAACCAAgIAAIiAAGiIgNJiKEMRqAMCIkwBEKqAfAwPAOoAABAAAAQABAAAIAAACAAAAAAAAAAA==

> <PUBCHEM_IUPAC_OPENEYE_NAME>
4-[(2R,3R)-3-[(3,4-dimethoxyphenyl)methyl]-4-methoxy-2-(methoxymethyl)butyl]-1,2-dimethoxy-benzene

> <PUBCHEM_IUPAC_CAS_NAME>
4-[(2R,3R)-3-[(3,4-dimethoxyphenyl)methyl]-4-methoxy-2-(methoxymethyl)butyl]-1,2-dimethoxybenzene

> <PUBCHEM_IUPAC_NAME_MARKUP>
4-[(2<I>R</I>,3<I>R</I>)-3-[(3,4-dimethoxyphenyl)methyl]-4-methoxy-2-(methoxymethyl)butyl]-1,2-dimethoxybenzene

> <PUBCHEM_IUPAC_NAME>
4-[(2R,3R)-3-[(3,4-dimethoxyphenyl)methyl]-4-methoxy-2-(methoxymethyl)butyl]-1,2-dimethoxybenzene

> <PUBCHEM_IUPAC_SYSTEMATIC_NAME>
4-[(2R,3R)-3-[(3,4-dimethoxyphenyl)methyl]-4-methoxy-2-(methoxymethyl)butyl]-1,2-dimethoxy-benzene

> <PUBCHEM_IUPAC_TRADITIONAL_NAME>
4-[(2R,3R)-4-(3,4-dimethoxyphenyl)-2,3-bis(methoxymethyl)butyl]-1,2-dimethoxy-benzene

> <PUBCHEM_IUPAC_INCHI>
InChI=1S/C24H34O6/c1-25-15-19(11-17-7-9-21(27-3)23(13-17)29-5)20(16-26-2)12-18-8-10-22(28-4)24(14-18)30-6/h7-10,13-14,19-20H,11-12,15-16H2,1-6H3/t19-,20-/m0/s1

> <PUBCHEM_IUPAC_INCHIKEY>
KFLQGJQSLUYUBF-PMACEKPBSA-N

> <PUBCHEM_XLOGP3_AA>
4.2

> <PUBCHEM_EXACT_MASS>
418.235539

> <PUBCHEM_MOLECULAR_FORMULA>
C24H34O6

> <PUBCHEM_MOLECULAR_WEIGHT>
418.5

> <PUBCHEM_OPENEYE_CAN_SMILES>
COCC(CC1=CC(=C(C=C1)OC)OC)C(CC2=CC(=C(C=C2)OC)OC)COC

> <PUBCHEM_OPENEYE_ISO_SMILES>
COC[C@H](CC1=CC(=C(C=C1)OC)OC)[C@@H](CC2=CC(=C(C=C2)OC)OC)COC

> <PUBCHEM_CACTVS_TPSA>
55.4

> <PUBCHEM_MONOISOTOPIC_WEIGHT>
418.235539

> <PUBCHEM_TOTAL_CHARGE>
0

> <PUBCHEM_HEAVY_ATOM_COUNT>
30

> <PUBCHEM_ATOM_DEF_STEREO_COUNT>
2

> <PUBCHEM_ATOM_UDEF_STEREO_COUNT>
0

> <PUBCHEM_BOND_DEF_STEREO_COUNT>
0

> <PUBCHEM_BOND_UDEF_STEREO_COUNT>
0

> <PUBCHEM_ISOTOPIC_ATOM_COUNT>
0

> <PUBCHEM_COMPONENT_COUNT>
1

> <PUBCHEM_CACTVS_TAUTO_COUNT>
-1

> <PUBCHEM_COORDINATE_TYPE>
1
5
255

> <PUBCHEM_BONDANNOTATIONS>
13  15  8
13  17  8
14  16  8
14  18  8
15  19  8
16  20  8
17  21  8
18  22  8
19  25  8
20  26  8
21  25  8
22  26  8
7  11  6
8  12  6

$$$$
9920342
  -OEChem-04052116402D

 74 74  0     1  0  0  0  0  0999 V2000
    5.0298   -7.1307    0.0000 O   0  0  0  0  0  0  0  0  0  0  0  0
    2.4608   -6.8216    0.0000 O   0  0  0  0  0  0  0  0  0  0  0  0
    3.1330   -8.8907    0.0000 O   0  0  0  0  0  0  0  0  0  0  0  0
    3.3548   -5.0429    0.0000 O   0  0  0  0  0  0  0  0  0  0  0  0
    5.0868   -4.0429    0.0000 O   0  0  0  0  0  0  0  0  0  0  0  0
    6.8189   -4.0429    0.0000 O   0  0  0  0  0  0  0  0  0  0  0  0
    4.2208   -6.5429    0.0000 C   0  0  1  0  0  0  0  0  0  0  0  0
    3.4118   -7.1307    0.0000 C   0  0  1  0  0  0  0  0  0  0  0  0
    3.7208   -8.0817    0.0000 C   0  0  2  0  0  0  0  0  0  0  0  0
    4.2208   -5.5429    0.0000 C   0  0  1  0  0  0  0  0  0  0  0  0
    4.7208   -8.0817    0.0000 C   0  0  0  0  0  0  0  0  0  0  0  0
    5.0868   -5.0429    0.0000 C   0  0  0  0  0  0  0  0  0  0  0  0
    6.8189   -1.0429    0.0000 C   0  0  0  0  0  0  0  0  0  0  0  0
    7.6849   -0.5429    0.0000 C   0  0  0  0  0  0  0  0  0  0  0  0
    6.8189   -2.0429    0.0000 C   0  0  0  0  0  0  0  0  0  0  0  0
    7.6849    0.4571    0.0000 C   0  0  0  0  0  0  0  0  0  0  0  0
    5.9529   -2.5429    0.0000 C   0  0  0  0  0  0  0  0  0  0  0  0
    8.5510    0.9571    0.0000 C   0  0  0  0  0  0  0  0  0  0  0  0
    7.6849    6.4571    0.0000 C   0  0  0  0  0  0  0  0  0  0  0  0
    7.6849    5.4571    0.0000 C   0  0  0  0  0  0  0  0  0  0  0  0
    5.9529   -3.5429    0.0000 C   0  0  0  0  0  0  0  0  0  0  0  0
    6.8189    6.9571    0.0000 C   0  0  0  0  0  0  0  0  0  0  0  0
    8.5510    4.9571    0.0000 C   0  0  0  0  0  0  0  0  0  0  0  0
    8.5510    1.9571    0.0000 C   0  0  0  0  0  0  0  0  0  0  0  0
    6.8189    7.9571    0.0000 C   0  0  0  0  0  0  0  0  0  0  0  0
    8.5510    3.9571    0.0000 C   0  0  0  0  0  0  0  0  0  0  0  0
    9.4170    2.4571    0.0000 C   0  0  0  0  0  0  0  0  0  0  0  0
    5.9529    8.4571    0.0000 C   0  0  0  0  0  0  0  0  0  0  0  0
    9.4170    3.4571    0.0000 C   0  0  0  0  0  0  0  0  0  0  0  0
    5.9529    9.4571    0.0000 C   0  0  0  0  0  0  0  0  0  0  0  0
    4.9782   -6.1570    0.0000 H   0  0  0  0  0  0  0  0  0  0  0  0
    3.3148   -6.5183    0.0000 H   0  0  0  0  0  0  0  0  0  0  0  0
    4.0023   -8.6341    0.0000 H   0  0  0  0  0  0  0  0  0  0  0  0
    4.2208   -4.9229    0.0000 H   0  0  0  0  0  0  0  0  0  0  0  0
    4.6560   -8.6983    0.0000 H   0  0  0  0  0  0  0  0  0  0  0  0
    5.3273   -8.2106    0.0000 H   0  0  0  0  0  0  0  0  0  0  0  0
    5.2989   -5.6255    0.0000 H   0  0  0  0  0  0  0  0  0  0  0  0
    5.6974   -4.9352    0.0000 H   0  0  0  0  0  0  0  0  0  0  0  0
    2.0000   -7.2365    0.0000 H   0  0  0  0  0  0  0  0  0  0  0  0
    3.3852   -9.4571    0.0000 H   0  0  0  0  0  0  0  0  0  0  0  0
    3.3548   -4.4229    0.0000 H   0  0  0  0  0  0  0  0  0  0  0  0
    6.6068   -0.4603    0.0000 H   0  0  0  0  0  0  0  0  0  0  0  0
    6.2083   -1.1505    0.0000 H   0  0  0  0  0  0  0  0  0  0  0  0
    7.8970   -1.1255    0.0000 H   0  0  0  0  0  0  0  0  0  0  0  0
    8.2955   -0.4352    0.0000 H   0  0  0  0  0  0  0  0  0  0  0  0
    7.0310   -2.6255    0.0000 H   0  0  0  0  0  0  0  0  0  0  0  0
    7.4295   -1.9352    0.0000 H   0  0  0  0  0  0  0  0  0  0  0  0
    7.4729    1.0397    0.0000 H   0  0  0  0  0  0  0  0  0  0  0  0
    7.0743    0.3495    0.0000 H   0  0  0  0  0  0  0  0  0  0  0  0
    5.7408   -1.9603    0.0000 H   0  0  0  0  0  0  0  0  0  0  0  0
    5.3423   -2.6505    0.0000 H   0  0  0  0  0  0  0  0  0  0  0  0
    8.7630    0.3745    0.0000 H   0  0  0  0  0  0  0  0  0  0  0  0
    9.1615    1.0648    0.0000 H   0  0  0  0  0  0  0  0  0  0  0  0
    8.2955    6.3495    0.0000 H   0  0  0  0  0  0  0  0  0  0  0  0
    7.8970    7.0397    0.0000 H   0  0  0  0  0  0  0  0  0  0  0  0
    7.0743    5.5648    0.0000 H   0  0  0  0  0  0  0  0  0  0  0  0
    7.4729    4.8745    0.0000 H   0  0  0  0  0  0  0  0  0  0  0  0
    6.2083    7.0648    0.0000 H   0  0  0  0  0  0  0  0  0  0  0  0
    6.6068    6.3745    0.0000 H   0  0  0  0  0  0  0  0  0  0  0  0
    9.1615    4.8495    0.0000 H   0  0  0  0  0  0  0  0  0  0  0  0
    8.7630    5.5397    0.0000 H   0  0  0  0  0  0  0  0  0  0  0  0
    8.3389    2.5397    0.0000 H   0  0  0  0  0  0  0  0  0  0  0  0
    7.9404    1.8495    0.0000 H   0  0  0  0  0  0  0  0  0  0  0  0
    7.4295    7.8495    0.0000 H   0  0  0  0  0  0  0  0  0  0  0  0
    7.0310    8.5397    0.0000 H   0  0  0  0  0  0  0  0  0  0  0  0
    7.9404    4.0648    0.0000 H   0  0  0  0  0  0  0  0  0  0  0  0
    8.3389    3.3745    0.0000 H   0  0  0  0  0  0  0  0  0  0  0  0
    5.3423    8.5648    0.0000 H   0  0  0  0  0  0  0  0  0  0  0  0
    5.7408    7.8745    0.0000 H   0  0  0  0  0  0  0  0  0  0  0  0
    9.9539    2.1471    0.0000 H   0  0  0  0  0  0  0  0  0  0  0  0
    9.9539    3.7671    0.0000 H   0  0  0  0  0  0  0  0  0  0  0  0
    6.5729    9.4571    0.0000 H   0  0  0  0  0  0  0  0  0  0  0  0
    5.9529   10.0771    0.0000 H   0  0  0  0  0  0  0  0  0  0  0  0
    5.3329    9.4571    0.0000 H   0  0  0  0  0  0  0  0  0  0  0  0
  1  7  1  0  0  0  0
  1 11  1  0  0  0  0
  8  2  1  1  0  0  0
  2 39  1  0  0  0  0
  9  3  1  6  0  0  0
  3 40  1  0  0  0  0
 10  4  1  6  0  0  0
  4 41  1  0  0  0  0
  5 12  1  0  0  0  0
  5 21  1  0  0  0  0
  6 21  2  0  0  0  0
  7  8  1  0  0  0  0
  7 10  1  0  0  0  0
  7 31  1  6  0  0  0
  8  9  1  0  0  0  0
  8 32  1  0  0  0  0
  9 11  1  0  0  0  0
  9 33  1  0  0  0  0
 10 12  1  0  0  0  0
 10 34  1  0  0  0  0
 11 35  1  0  0  0  0
 11 36  1  0  0  0  0
 12 37  1  0  0  0  0
 12 38  1  0  0  0  0
 13 14  1  0  0  0  0
 13 15  1  0  0  0  0
 13 42  1  0  0  0  0
 13 43  1  0  0  0  0
 14 16  1  0  0  0  0
 14 44  1  0  0  0  0
 14 45  1  0  0  0  0
 15 17  1  0  0  0  0
 15 46  1  0  0  0  0
 15 47  1  0  0  0  0
 16 18  1  0  0  0  0
 16 48  1  0  0  0  0
 16 49  1  0  0  0  0
 17 21  1  0  0  0  0
 17 50  1  0  0  0  0
 17 51  1  0  0  0  0
 18 24  1  0  0  0  0
 18 52  1  0  0  0  0
 18 53  1  0  0  0  0
 19 20  1  0  0  0  0
 19 22  1  0  0  0  0
 19 54  1  0  0  0  0
 19 55  1  0  0  0  0
 20 23  1  0  0  0  0
 20 56  1  0  0  0  0
 20 57  1  0  0  0  0
 22 25  1  0  0  0  0
 22 58  1  0  0  0  0
 22 59  1  0  0  0  0
 23 26  1  0  0  0  0
 23 60  1  0  0  0  0
 23 61  1  0  0  0  0
 24 27  1  0  0  0  0
 24 62  1  0  0  0  0
 24 63  1  0  0  0  0
 25 28  1  0  0  0  0
 25 64  1  0  0  0  0
 25 65  1  0  0  0  0
 26 29  1  0  0  0  0
 26 66  1  0  0  0  0
 26 67  1  0  0  0  0
 27 29  2  0  0  0  0
 27 70  1  0  0  0  0
 28 30  1  0  0  0  0
 28 68  1  0  0  0  0
 28 69  1  0  0  0  0
 29 71  1  0  0  0  0
 30 72  1  0  0  0  0
 30 73  1  0  0  0  0
 30 74  1  0  0  0  0
M  END
> <PUBCHEM_COMPOUND_CID>
9920342

> <PUBCHEM_COMPOUND_CANONICALIZED>
1

> <PUBCHEM_CACTVS_COMPLEXITY>
453

> <PUBCHEM_CACTVS_HBOND_ACCEPTOR>
6

> <PUBCHEM_CACTVS_HBOND_DONOR>
3

> <PUBCHEM_CACTVS_ROTATABLE_BOND>
19

> <PUBCHEM_CACTVS_SUBSKEYS>
AAADcfB4OAAAAAAAAAAAAAAAAAAAASAAAAAAAAAAAAAAAAAAAAAAGgAACAAACBSggAICCAAABgCIACDSCAAAAAAgAAAICAEAAAgBEBIAAQACQAAFgAALAAPI6KyAAAAAAAAAAAAAAAAAAAAAAAAAAAAAAA==

> <PUBCHEM_IUPAC_OPENEYE_NAME>
[(2R)-2-[(2R,3R,4S)-3,4-dihydroxytetrahydrofuran-2-yl]-2-hydroxy-ethyl] (Z)-octadec-9-enoate

> <PUBCHEM_IUPAC_CAS_NAME>
(Z)-9-octadecenoic acid [(2R)-2-[(2R,3R,4S)-3,4-dihydroxy-2-oxolanyl]-2-hydroxyethyl] ester

> <PUBCHEM_IUPAC_NAME_MARKUP>
[(2<I>R</I>)-2-[(2<I>R</I>,3<I>R</I>,4<I>S</I>)-3,4-dihydroxyoxolan-2-yl]-2-hydroxyethyl] (<I>Z</I>)-octadec-9-enoate

> <PUBCHEM_IUPAC_NAME>
[(2R)-2-[(2R,3R,4S)-3,4-dihydroxyoxolan-2-yl]-2-hydroxyethyl] (Z)-octadec-9-enoate

> <PUBCHEM_IUPAC_SYSTEMATIC_NAME>
[(2R)-2-[(2R,3R,4S)-3,4-bis(oxidanyl)oxolan-2-yl]-2-oxidanyl-ethyl] (Z)-octadec-9-enoate

> <PUBCHEM_IUPAC_TRADITIONAL_NAME>
(Z)-octadec-9-enoic acid [(2R)-2-[(2R,3R,4S)-3,4-dihydroxytetrahydrofuran-2-yl]-2-hydroxy-ethyl] ester

> <PUBCHEM_IUPAC_INCHI>
InChI=1S/C24H44O6/c1-2-3-4-5-6-7-8-9-10-11-12-13-14-15-16-17-22(27)29-19-21(26)24-23(28)20(25)18-30-24/h9-10,20-21,23-26,28H,2-8,11-19H2,1H3/b10-9-/t20-,21+,23+,24+/m0/s1

> <PUBCHEM_IUPAC_INCHIKEY>
NWGKJDSIEKMTRX-AAZCQSIUSA-N

> <PUBCHEM_XLOGP3_AA>
6

> <PUBCHEM_EXACT_MASS>
428.313789

> <PUBCHEM_MOLECULAR_FORMULA>
C24H44O6

> <PUBCHEM_MOLECULAR_WEIGHT>
428.6

> <PUBCHEM_OPENEYE_CAN_SMILES>
CCCCCCCCC=CCCCCCCCC(=O)OCC(C1C(C(CO1)O)O)O

> <PUBCHEM_OPENEYE_ISO_SMILES>
CCCCCCCC/C=C\CCCCCCCC(=O)OC[C@H]([C@@H]1[C@@H]([C@H](CO1)O)O)O

> <PUBCHEM_CACTVS_TPSA>
96.2

> <PUBCHEM_MONOISOTOPIC_WEIGHT>
428.313789

> <PUBCHEM_TOTAL_CHARGE>
0

> <PUBCHEM_HEAVY_ATOM_COUNT>
30

> <PUBCHEM_ATOM_DEF_STEREO_COUNT>
4

> <PUBCHEM_ATOM_UDEF_STEREO_COUNT>
0

> <PUBCHEM_BOND_DEF_STEREO_COUNT>
1

> <PUBCHEM_BOND_UDEF_STEREO_COUNT>
0

> <PUBCHEM_ISOTOPIC_ATOM_COUNT>
0

> <PUBCHEM_COMPONENT_COUNT>
1

> <PUBCHEM_CACTVS_TAUTO_COUNT>
-1

> <PUBCHEM_COORDINATE_TYPE>
1
5
255

> <PUBCHEM_BONDANNOTATIONS>
8  2  5
9  3  6
10  4  6
7  31  6

$$$$
9571009
  -OEChem-04052116402D

 28 27  0     1  0  0  0  0  0999 V2000
    2.8660   -0.2500    0.0000 S   0  0  0  0  0  0  0  0  0  0  0  0
    2.3660    0.6160    0.0000 O   0  0  0  0  0  0  0  0  0  0  0  0
    3.3660   -1.1160    0.0000 O   0  0  0  0  0  0  0  0  0  0  0  0
    6.3301   -0.2500    0.0000 O   0  0  0  0  0  0  0  0  0  0  0  0
    7.1962    1.2500    0.0000 O   0  0  0  0  0  0  0  0  0  0  0  0
    5.4641    0.2500    0.0000 N   0  0  0  0  0  0  0  0  0  0  0  0
    8.0622   -0.2500    0.0000 N   0  0  0  0  0  0  0  0  0  0  0  0
    3.7320    0.2500    0.0000 C   0  0  3  0  0  0  0  0  0  0  0  0
    4.5981   -0.2500    0.0000 C   0  0  0  0  0  0  0  0  0  0  0  0
    3.7320    1.2500    0.0000 C   0  0  0  0  0  0  0  0  0  0  0  0
    2.0000   -0.7500    0.0000 C   0  0  0  0  0  0  0  0  0  0  0  0
    4.5981   -1.2500    0.0000 C   0  0  0  0  0  0  0  0  0  0  0  0
    7.1962    0.2500    0.0000 C   0  0  0  0  0  0  0  0  0  0  0  0
    8.9282    0.2500    0.0000 C   0  0  0  0  0  0  0  0  0  0  0  0
    3.1951    0.5600    0.0000 H   0  0  0  0  0  0  0  0  0  0  0  0
    4.3520    1.2500    0.0000 H   0  0  0  0  0  0  0  0  0  0  0  0
    3.7320    1.8700    0.0000 H   0  0  0  0  0  0  0  0  0  0  0  0
    3.1120    1.2500    0.0000 H   0  0  0  0  0  0  0  0  0  0  0  0
    1.6900   -0.2131    0.0000 H   0  0  0  0  0  0  0  0  0  0  0  0
    1.4631   -1.0600    0.0000 H   0  0  0  0  0  0  0  0  0  0  0  0
    2.3100   -1.2869    0.0000 H   0  0  0  0  0  0  0  0  0  0  0  0
    3.9781   -1.2500    0.0000 H   0  0  0  0  0  0  0  0  0  0  0  0
    4.5981   -1.8700    0.0000 H   0  0  0  0  0  0  0  0  0  0  0  0
    5.2181   -1.2500    0.0000 H   0  0  0  0  0  0  0  0  0  0  0  0
    8.0622   -0.8700    0.0000 H   0  0  0  0  0  0  0  0  0  0  0  0
    9.2382   -0.2869    0.0000 H   0  0  0  0  0  0  0  0  0  0  0  0
    9.4651    0.5600    0.0000 H   0  0  0  0  0  0  0  0  0  0  0  0
    8.6182    0.7869    0.0000 H   0  0  0  0  0  0  0  0  0  0  0  0
  1  2  2  0  0  0  0
  1  3  2  0  0  0  0
  1  8  1  0  0  0  0
  1 11  1  0  0  0  0
  4  6  1  0  0  0  0
  4 13  1  0  0  0  0
  5 13  2  0  0  0  0
  6  9  2  0  0  0  0
  7 13  1  0  0  0  0
  7 14  1  0  0  0  0
  7 25  1  0  0  0  0
  8  9  1  0  0  0  0
  8 10  1  0  0  0  0
  8 15  1  0  0  0  0
  9 12  1  0  0  0  0
 10 16  1  0  0  0  0
 10 17  1  0  0  0  0
 10 18  1  0  0  0  0
 11 19  1  0  0  0  0
 11 20  1  0  0  0  0
 11 21  1  0  0  0  0
 12 22  1  0  0  0  0
 12 23  1  0  0  0  0
 12 24  1  0  0  0  0
 14 26  1  0  0  0  0
 14 27  1  0  0  0  0
 14 28  1  0  0  0  0
M  END
> <PUBCHEM_COMPOUND_CID>
9571009

> <PUBCHEM_COMPOUND_CANONICALIZED>
1

> <PUBCHEM_CACTVS_COMPLEXITY>
328

> <PUBCHEM_CACTVS_HBOND_ACCEPTOR>
5

> <PUBCHEM_CACTVS_HBOND_DONOR>
1

> <PUBCHEM_CACTVS_ROTATABLE_BOND>
4

> <PUBCHEM_CACTVS_SUBSKEYS>
AAADccBjOABAAAAAAAAAAAAAAAAAAAAAAAAAAAAAAAAAAAAAAAAAHgQUAAAACAiFQASCCALQAAooAQAgGHBAAAAAABAAAIA4AAEAAAAgAAAAAAAAAgAAAAAAAAAAAAAAAAAAAAAAAAAAAAAAAAAAAAAAAA==

> <PUBCHEM_IUPAC_OPENEYE_NAME>
[(E)-(1-methyl-2-methylsulfonyl-propylidene)amino] N-methylcarbamate

> <PUBCHEM_IUPAC_CAS_NAME>
N-methylcarbamic acid [(E)-3-methylsulfonylbutan-2-ylideneamino] ester

> <PUBCHEM_IUPAC_NAME_MARKUP>
[(<I>E</I>)-3-methylsulfonylbutan-2-ylideneamino] <I>N</I>-methylcarbamate

> <PUBCHEM_IUPAC_NAME>
[(E)-3-methylsulfonylbutan-2-ylideneamino] N-methylcarbamate

> <PUBCHEM_IUPAC_SYSTEMATIC_NAME>
[(E)-3-methylsulfonylbutan-2-ylideneamino] N-methylcarbamate

> <PUBCHEM_IUPAC_TRADITIONAL_NAME>
N-methylcarbamic acid [(E)-(2-mesyl-1-methyl-propylidene)amino] ester

> <PUBCHEM_IUPAC_INCHI>
InChI=1S/C7H14N2O4S/c1-5(6(2)14(4,11)12)9-13-7(10)8-3/h6H,1-4H3,(H,8,10)/b9-5+

> <PUBCHEM_IUPAC_INCHIKEY>
CTJBHIROCMPUKL-WEVVVXLNSA-N

> <PUBCHEM_XLOGP3_AA>
-0.1

> <PUBCHEM_EXACT_MASS>
222.067428

> <PUBCHEM_MOLECULAR_FORMULA>
C7H14N2O4S

> <PUBCHEM_MOLECULAR_WEIGHT>
222.26

> <PUBCHEM_OPENEYE_CAN_SMILES>
CC(C(=NOC(=O)NC)C)S(=O)(=O)C

> <PUBCHEM_OPENEYE_ISO_SMILES>
CC(/C(=N/OC(=O)NC)/C)S(=O)(=O)C

> <PUBCHEM_CACTVS_TPSA>
93.2

> <PUBCHEM_MONOISOTOPIC_WEIGHT>
222.067428

> <PUBCHEM_TOTAL_CHARGE>
0

> <PUBCHEM_HEAVY_ATOM_COUNT>
14

> <PUBCHEM_ATOM_DEF_STEREO_COUNT>
0

> <PUBCHEM_ATOM_UDEF_STEREO_COUNT>
1

> <PUBCHEM_BOND_DEF_STEREO_COUNT>
1

> <PUBCHEM_BOND_UDEF_STEREO_COUNT>
0

> <PUBCHEM_ISOTOPIC_ATOM_COUNT>
0

> <PUBCHEM_COMPONENT_COUNT>
1

> <PUBCHEM_CACTVS_TAUTO_COUNT>
-1

> <PUBCHEM_COORDINATE_TYPE>
1
5
255

> <PUBCHEM_BONDANNOTATIONS>
8  10  3

$$$$
7251180
  -OEChem-04052116402D

 33 33  0     1  0  0  0  0  0999 V2000
    7.6751   -1.3157    0.0000 O   0  0  0  0  0  0  0  0  0  0  0  0
    2.4608   -1.6759    0.0000 O   0  0  0  0  0  0  0  0  0  0  0  0
    3.6197   -2.9630    0.0000 O   0  0  0  0  0  0  0  0  0  0  0  0
    5.1060   -1.6248    0.0000 C   0  0  1  0  0  0  0  0  0  0  0  0
    5.9150   -1.0370    0.0000 C   0  0  1  0  0  0  0  0  0  0  0  0
    5.4150   -2.5758    0.0000 C   0  0  0  0  0  0  0  0  0  0  0  0
    6.4150   -2.5758    0.0000 C   0  0  0  0  0  0  0  0  0  0  0  0
    6.7240   -1.6248    0.0000 C   0  0  0  0  0  0  0  0  0  0  0  0
    4.1550   -1.3157    0.0000 C   0  0  0  0  0  0  0  0  0  0  0  0
    5.9150   -0.0370    0.0000 C   0  0  0  0  0  0  0  0  0  0  0  0
    6.7810    0.4630    0.0000 C   0  0  0  0  0  0  0  0  0  0  0  0
    3.4118   -1.9849    0.0000 C   0  0  0  0  0  0  0  0  0  0  0  0
    6.7810    1.4630    0.0000 C   0  0  0  0  0  0  0  0  0  0  0  0
    5.9150    1.9630    0.0000 C   0  0  0  0  0  0  0  0  0  0  0  0
    5.9150    2.9630    0.0000 C   0  0  0  0  0  0  0  0  0  0  0  0
    4.6676   -2.0632    0.0000 H   0  0  0  0  0  0  0  0  0  0  0  0
    6.4675   -0.7555    0.0000 H   0  0  0  0  0  0  0  0  0  0  0  0
    4.8086   -2.7047    0.0000 H   0  0  0  0  0  0  0  0  0  0  0  0
    5.4798   -3.1924    0.0000 H   0  0  0  0  0  0  0  0  0  0  0  0
    6.3502   -3.1924    0.0000 H   0  0  0  0  0  0  0  0  0  0  0  0
    7.0215   -2.7047    0.0000 H   0  0  0  0  0  0  0  0  0  0  0  0
    4.4460   -0.7683    0.0000 H   0  0  0  0  0  0  0  0  0  0  0  0
    3.6664   -0.9340    0.0000 H   0  0  0  0  0  0  0  0  0  0  0  0
    5.7030    0.5456    0.0000 H   0  0  0  0  0  0  0  0  0  0  0  0
    5.3044   -0.1446    0.0000 H   0  0  0  0  0  0  0  0  0  0  0  0
    7.3180    0.1530    0.0000 H   0  0  0  0  0  0  0  0  0  0  0  0
    7.3180    1.7730    0.0000 H   0  0  0  0  0  0  0  0  0  0  0  0
    5.3044    2.0707    0.0000 H   0  0  0  0  0  0  0  0  0  0  0  0
    5.7030    1.3804    0.0000 H   0  0  0  0  0  0  0  0  0  0  0  0
    2.0000   -2.0907    0.0000 H   0  0  0  0  0  0  0  0  0  0  0  0
    6.5350    2.9630    0.0000 H   0  0  0  0  0  0  0  0  0  0  0  0
    5.9150    3.5830    0.0000 H   0  0  0  0  0  0  0  0  0  0  0  0
    5.2950    2.9630    0.0000 H   0  0  0  0  0  0  0  0  0  0  0  0
  1  8  2  0  0  0  0
  2 12  1  0  0  0  0
  2 30  1  0  0  0  0
  3 12  2  0  0  0  0
  4  5  1  0  0  0  0
  4  6  1  0  0  0  0
  4  9  1  1  0  0  0
  4 16  1  0  0  0  0
  5  8  1  0  0  0  0
  5 10  1  6  0  0  0
  5 17  1  0  0  0  0
  6  7  1  0  0  0  0
  6 18  1  0  0  0  0
  6 19  1  0  0  0  0
  7  8  1  0  0  0  0
  7 20  1  0  0  0  0
  7 21  1  0  0  0  0
  9 12  1  0  0  0  0
  9 22  1  0  0  0  0
  9 23  1  0  0  0  0
 10 11  1  0  0  0  0
 10 24  1  0  0  0  0
 10 25  1  0  0  0  0
 11 13  2  0  0  0  0
 11 26  1  0  0  0  0
 13 14  1  0  0  0  0
 13 27  1  0  0  0  0
 14 15  1  0  0  0  0
 14 28  1  0  0  0  0
 14 29  1  0  0  0  0
 15 31  1  0  0  0  0
 15 32  1  0  0  0  0
 15 33  1  0  0  0  0
M  END
> <PUBCHEM_COMPOUND_CID>
7251180

> <PUBCHEM_COMPOUND_CANONICALIZED>
1

> <PUBCHEM_CACTVS_COMPLEXITY>
268

> <PUBCHEM_CACTVS_HBOND_ACCEPTOR>
3

> <PUBCHEM_CACTVS_HBOND_DONOR>
1

> <PUBCHEM_CACTVS_ROTATABLE_BOND>
5

> <PUBCHEM_CACTVS_SUBSKEYS>
AAADceBwMAAAAAAAAAAAAAAAAAAAAYAAAAAAAAAAAAAAAAAAAAAAGgAACAAADQSAgAACCAAAAgCIAKDSCAAAAAAgAAAICAEAAAgAABIAAQAAQAAEgAAIAAOIzqCugAAAAAAAAAAAAAAAAAAAAAAACAAAAA==

> <PUBCHEM_IUPAC_OPENEYE_NAME>
2-[(1S,2S)-3-oxo-2-[(Z)-pent-2-enyl]cyclopentyl]acetic acid

> <PUBCHEM_IUPAC_CAS_NAME>
2-[(1S,2S)-3-oxo-2-[(Z)-pent-2-enyl]cyclopentyl]acetic acid

> <PUBCHEM_IUPAC_NAME_MARKUP>
2-[(1<I>S</I>,2<I>S</I>)-3-oxo-2-[(<I>Z</I>)-pent-2-enyl]cyclopentyl]acetic acid

> <PUBCHEM_IUPAC_NAME>
2-[(1S,2S)-3-oxo-2-[(Z)-pent-2-enyl]cyclopentyl]acetic acid

> <PUBCHEM_IUPAC_SYSTEMATIC_NAME>
2-[(1S,2S)-3-oxidanylidene-2-[(Z)-pent-2-enyl]cyclopentyl]ethanoic acid

> <PUBCHEM_IUPAC_TRADITIONAL_NAME>
2-[(1S,2S)-3-keto-2-[(Z)-pent-2-enyl]cyclopentyl]acetic acid

> <PUBCHEM_IUPAC_INCHI>
InChI=1S/C12H18O3/c1-2-3-4-5-10-9(8-12(14)15)6-7-11(10)13/h3-4,9-10H,2,5-8H2,1H3,(H,14,15)/b4-3-/t9-,10-/m0/s1

> <PUBCHEM_IUPAC_INCHIKEY>
ZNJFBWYDHIGLCU-CMIOBCHKSA-N

> <PUBCHEM_XLOGP3_AA>
1.6

> <PUBCHEM_EXACT_MASS>
210.125594

> <PUBCHEM_MOLECULAR_FORMULA>
C12H18O3

> <PUBCHEM_MOLECULAR_WEIGHT>
210.27

> <PUBCHEM_OPENEYE_CAN_SMILES>
CCC=CCC1C(CCC1=O)CC(=O)O

> <PUBCHEM_OPENEYE_ISO_SMILES>
CC/C=C\C[C@H]1[C@@H](CCC1=O)CC(=O)O

> <PUBCHEM_CACTVS_TPSA>
54.4

> <PUBCHEM_MONOISOTOPIC_WEIGHT>
210.125594

> <PUBCHEM_TOTAL_CHARGE>
0

> <PUBCHEM_HEAVY_ATOM_COUNT>
15

> <PUBCHEM_ATOM_DEF_STEREO_COUNT>
2

> <PUBCHEM_ATOM_UDEF_STEREO_COUNT>
0

> <PUBCHEM_BOND_DEF_STEREO_COUNT>
1

> <PUBCHEM_BOND_UDEF_STEREO_COUNT>
0

> <PUBCHEM_ISOTOPIC_ATOM_COUNT>
0

> <PUBCHEM_COMPONENT_COUNT>
1

> <PUBCHEM_CACTVS_TAUTO_COUNT>
-1

> <PUBCHEM_COORDINATE_TYPE>
1
5
255

> <PUBCHEM_BONDANNOTATIONS>
4  9  5
5  10  6

$$$$
6850846
  -OEChem-04052116402D

115113  0     0  0  0  0  0  0999 V2000
   17.8574    1.6200    0.0000 O   0  0  0  0  0  0  0  0  0  0  0  0
   16.9914    3.1200    0.0000 O   0  0  0  0  0  0  0  0  0  0  0  0
   18.2905    7.3600    0.0000 O   0  0  0  0  0  0  0  0  0  0  0  0
   17.4244    8.8600    0.0000 O   0  0  0  0  0  0  0  0  0  0  0  0
    6.5991    2.1200    0.0000 C   0  0  0  0  0  0  0  0  0  0  0  0
    7.0321    7.8600    0.0000 C   0  0  0  0  0  0  0  0  0  0  0  0
   10.9292    1.6200    0.0000 C   0  0  0  0  0  0  0  0  0  0  0  0
   11.3623    7.3600    0.0000 C   0  0  0  0  0  0  0  0  0  0  0  0
    7.4651    1.6200    0.0000 C   0  0  0  0  0  0  0  0  0  0  0  0
    5.7331    1.6200    0.0000 C   0  0  0  0  0  0  0  0  0  0  0  0
    7.8982    7.3600    0.0000 C   0  0  0  0  0  0  0  0  0  0  0  0
    6.1661    7.3600    0.0000 C   0  0  0  0  0  0  0  0  0  0  0  0
   10.0632    2.1200    0.0000 C   0  0  0  0  0  0  0  0  0  0  0  0
   10.4962    7.8600    0.0000 C   0  0  0  0  0  0  0  0  0  0  0  0
   11.7953    2.1200    0.0000 C   0  0  0  0  0  0  0  0  0  0  0  0
    3.1350    2.1200    0.0000 C   0  0  0  0  0  0  0  0  0  0  0  0
    3.5680    7.8600    0.0000 C   0  0  0  0  0  0  0  0  0  0  0  0
    8.3312    2.1200    0.0000 C   0  0  0  0  0  0  0  0  0  0  0  0
    6.5991    3.1200    0.0000 C   0  0  0  0  0  0  0  0  0  0  0  0
   12.2283    7.8600    0.0000 C   0  0  0  0  0  0  0  0  0  0  0  0
    9.1972    1.6200    0.0000 C   0  0  0  0  0  0  0  0  0  0  0  0
    7.0321    8.8600    0.0000 C   0  0  0  0  0  0  0  0  0  0  0  0
    8.7642    7.8600    0.0000 C   0  0  0  0  0  0  0  0  0  0  0  0
    4.8671    2.1200    0.0000 C   0  0  0  0  0  0  0  0  0  0  0  0
    5.3001    7.8600    0.0000 C   0  0  0  0  0  0  0  0  0  0  0  0
    9.6302    7.3600    0.0000 C   0  0  0  0  0  0  0  0  0  0  0  0
   10.9292    0.6200    0.0000 C   0  0  0  0  0  0  0  0  0  0  0  0
    4.0010    1.6200    0.0000 C   0  0  0  0  0  0  0  0  0  0  0  0
    4.4340    7.3600    0.0000 C   0  0  0  0  0  0  0  0  0  0  0  0
   11.3623    6.3600    0.0000 C   0  0  0  0  0  0  0  0  0  0  0  0
   12.6613    1.6200    0.0000 C   0  0  0  0  0  0  0  0  0  0  0  0
   14.3933    1.6200    0.0000 C   0  0  0  0  0  0  0  0  0  0  0  0
   13.5273    2.1200    0.0000 C   0  0  0  0  0  0  0  0  0  0  0  0
   13.0943    7.3600    0.0000 C   0  0  0  0  0  0  0  0  0  0  0  0
   14.8264    7.3600    0.0000 C   0  0  0  0  0  0  0  0  0  0  0  0
   13.9603    7.8600    0.0000 C   0  0  0  0  0  0  0  0  0  0  0  0
    3.1350    3.1200    0.0000 C   0  0  0  0  0  0  0  0  0  0  0  0
    3.5680    8.8600    0.0000 C   0  0  0  0  0  0  0  0  0  0  0  0
    2.2690    1.6200    0.0000 C   0  0  0  0  0  0  0  0  0  0  0  0
    2.7020    7.3600    0.0000 C   0  0  0  0  0  0  0  0  0  0  0  0
   14.3933    0.6200    0.0000 C   0  0  0  0  0  0  0  0  0  0  0  0
   14.8264    6.3600    0.0000 C   0  0  0  0  0  0  0  0  0  0  0  0
   15.2594    2.1200    0.0000 C   0  0  0  0  0  0  0  0  0  0  0  0
   15.6924    7.8600    0.0000 C   0  0  0  0  0  0  0  0  0  0  0  0
    1.4030    2.1200    0.0000 C   0  0  0  0  0  0  0  0  0  0  0  0
    1.8360    7.8600    0.0000 C   0  0  0  0  0  0  0  0  0  0  0  0
   16.1254    1.6200    0.0000 C   0  0  0  0  0  0  0  0  0  0  0  0
    0.5369    1.6200    0.0000 C   0  0  0  0  0  0  0  0  0  0  0  0
    0.9700    7.3600    0.0000 C   0  0  0  0  0  0  0  0  0  0  0  0
   16.5584    7.3600    0.0000 C   0  0  0  0  0  0  0  0  0  0  0  0
   16.9914    2.1200    0.0000 C   0  0  0  0  0  0  0  0  0  0  0  0
   17.4244    7.8600    0.0000 C   0  0  0  0  0  0  0  0  0  0  0  0
   18.7235    2.1200    0.0000 C   0  0  0  0  0  0  0  0  0  0  0  0
    7.4651    1.0000    0.0000 H   0  0  0  0  0  0  0  0  0  0  0  0
    5.7331    1.0000    0.0000 H   0  0  0  0  0  0  0  0  0  0  0  0
    7.8982    6.7400    0.0000 H   0  0  0  0  0  0  0  0  0  0  0  0
    6.1661    6.7400    0.0000 H   0  0  0  0  0  0  0  0  0  0  0  0
   10.0632    2.7400    0.0000 H   0  0  0  0  0  0  0  0  0  0  0  0
   10.4962    8.4800    0.0000 H   0  0  0  0  0  0  0  0  0  0  0  0
   11.7953    2.7400    0.0000 H   0  0  0  0  0  0  0  0  0  0  0  0
    8.3312    2.7400    0.0000 H   0  0  0  0  0  0  0  0  0  0  0  0
   12.2283    8.4800    0.0000 H   0  0  0  0  0  0  0  0  0  0  0  0
    7.2191    3.1200    0.0000 H   0  0  0  0  0  0  0  0  0  0  0  0
    6.5991    3.7400    0.0000 H   0  0  0  0  0  0  0  0  0  0  0  0
    5.9791    3.1200    0.0000 H   0  0  0  0  0  0  0  0  0  0  0  0
    9.1972    1.0000    0.0000 H   0  0  0  0  0  0  0  0  0  0  0  0
    7.6521    8.8600    0.0000 H   0  0  0  0  0  0  0  0  0  0  0  0
    7.0321    9.4800    0.0000 H   0  0  0  0  0  0  0  0  0  0  0  0
    6.4121    8.8600    0.0000 H   0  0  0  0  0  0  0  0  0  0  0  0
    8.7642    8.4800    0.0000 H   0  0  0  0  0  0  0  0  0  0  0  0
    4.8671    2.7400    0.0000 H   0  0  0  0  0  0  0  0  0  0  0  0
    5.3001    8.4800    0.0000 H   0  0  0  0  0  0  0  0  0  0  0  0
    9.6302    6.7400    0.0000 H   0  0  0  0  0  0  0  0  0  0  0  0
   10.3092    0.6200    0.0000 H   0  0  0  0  0  0  0  0  0  0  0  0
   10.9292    0.0000    0.0000 H   0  0  0  0  0  0  0  0  0  0  0  0
   11.5492    0.6200    0.0000 H   0  0  0  0  0  0  0  0  0  0  0  0
    4.0010    1.0000    0.0000 H   0  0  0  0  0  0  0  0  0  0  0  0
    4.4340    6.7400    0.0000 H   0  0  0  0  0  0  0  0  0  0  0  0
   10.7423    6.3600    0.0000 H   0  0  0  0  0  0  0  0  0  0  0  0
   11.3623    5.7400    0.0000 H   0  0  0  0  0  0  0  0  0  0  0  0
   11.9823    6.3600    0.0000 H   0  0  0  0  0  0  0  0  0  0  0  0
   12.6613    1.0000    0.0000 H   0  0  0  0  0  0  0  0  0  0  0  0
   13.5273    2.7400    0.0000 H   0  0  0  0  0  0  0  0  0  0  0  0
   13.0943    6.7400    0.0000 H   0  0  0  0  0  0  0  0  0  0  0  0
   13.9603    8.4800    0.0000 H   0  0  0  0  0  0  0  0  0  0  0  0
    3.7550    3.1200    0.0000 H   0  0  0  0  0  0  0  0  0  0  0  0
    3.1350    3.7400    0.0000 H   0  0  0  0  0  0  0  0  0  0  0  0
    2.5150    3.1200    0.0000 H   0  0  0  0  0  0  0  0  0  0  0  0
    4.1880    8.8600    0.0000 H   0  0  0  0  0  0  0  0  0  0  0  0
    3.5680    9.4800    0.0000 H   0  0  0  0  0  0  0  0  0  0  0  0
    2.9480    8.8600    0.0000 H   0  0  0  0  0  0  0  0  0  0  0  0
    2.2690    1.0000    0.0000 H   0  0  0  0  0  0  0  0  0  0  0  0
    2.7020    6.7400    0.0000 H   0  0  0  0  0  0  0  0  0  0  0  0
   13.7733    0.6200    0.0000 H   0  0  0  0  0  0  0  0  0  0  0  0
   14.3933    0.0000    0.0000 H   0  0  0  0  0  0  0  0  0  0  0  0
   15.0133    0.6200    0.0000 H   0  0  0  0  0  0  0  0  0  0  0  0
   14.2064    6.3600    0.0000 H   0  0  0  0  0  0  0  0  0  0  0  0
   14.8264    5.7400    0.0000 H   0  0  0  0  0  0  0  0  0  0  0  0
   15.4464    6.3600    0.0000 H   0  0  0  0  0  0  0  0  0  0  0  0
   15.2594    2.7400    0.0000 H   0  0  0  0  0  0  0  0  0  0  0  0
   15.6924    8.4800    0.0000 H   0  0  0  0  0  0  0  0  0  0  0  0
    1.4030    2.7400    0.0000 H   0  0  0  0  0  0  0  0  0  0  0  0
    1.8360    8.4800    0.0000 H   0  0  0  0  0  0  0  0  0  0  0  0
   16.1254    1.0000    0.0000 H   0  0  0  0  0  0  0  0  0  0  0  0
    0.2269    2.1569    0.0000 H   0  0  0  0  0  0  0  0  0  0  0  0
    0.0000    1.3100    0.0000 H   0  0  0  0  0  0  0  0  0  0  0  0
    0.8469    1.0831    0.0000 H   0  0  0  0  0  0  0  0  0  0  0  0
    0.6600    7.8969    0.0000 H   0  0  0  0  0  0  0  0  0  0  0  0
    0.4330    7.0500    0.0000 H   0  0  0  0  0  0  0  0  0  0  0  0
    1.2800    6.8231    0.0000 H   0  0  0  0  0  0  0  0  0  0  0  0
   16.5584    6.7400    0.0000 H   0  0  0  0  0  0  0  0  0  0  0  0
   19.0335    1.5831    0.0000 H   0  0  0  0  0  0  0  0  0  0  0  0
   19.2604    2.4300    0.0000 H   0  0  0  0  0  0  0  0  0  0  0  0
   18.4135    2.6569    0.0000 H   0  0  0  0  0  0  0  0  0  0  0  0
   18.8274    7.6700    0.0000 H   0  0  0  0  0  0  0  0  0  0  0  0
  1 51  1  0  0  0  0
  1 53  1  0  0  0  0
  2 51  2  0  0  0  0
  3 52  1  0  0  0  0
  3115  1  0  0  0  0
  4 52  2  0  0  0  0
  5  9  2  0  0  0  0
  5 10  1  0  0  0  0
  5 19  1  0  0  0  0
  6 11  2  0  0  0  0
  6 12  1  0  0  0  0
  6 22  1  0  0  0  0
  7 13  2  0  0  0  0
  7 15  1  0  0  0  0
  7 27  1  0  0  0  0
  8 14  2  0  0  0  0
  8 20  1  0  0  0  0
  8 30  1  0  0  0  0
  9 18  1  0  0  0  0
  9 54  1  0  0  0  0
 10 24  2  0  0  0  0
 10 55  1  0  0  0  0
 11 23  1  0  0  0  0
 11 56  1  0  0  0  0
 12 25  2  0  0  0  0
 12 57  1  0  0  0  0
 13 21  1  0  0  0  0
 13 58  1  0  0  0  0
 14 26  1  0  0  0  0
 14 59  1  0  0  0  0
 15 31  2  0  0  0  0
 15 60  1  0  0  0  0
 16 28  2  0  0  0  0
 16 37  1  0  0  0  0
 16 39  1  0  0  0  0
 17 29  2  0  0  0  0
 17 38  1  0  0  0  0
 17 40  1  0  0  0  0
 18 21  2  0  0  0  0
 18 61  1  0  0  0  0
 19 63  1  0  0  0  0
 19 64  1  0  0  0  0
 19 65  1  0  0  0  0
 20 34  2  0  0  0  0
 20 62  1  0  0  0  0
 21 66  1  0  0  0  0
 22 67  1  0  0  0  0
 22 68  1  0  0  0  0
 22 69  1  0  0  0  0
 23 26  2  0  0  0  0
 23 70  1  0  0  0  0
 24 28  1  0  0  0  0
 24 71  1  0  0  0  0
 25 29  1  0  0  0  0
 25 72  1  0  0  0  0
 26 73  1  0  0  0  0
 27 74  1  0  0  0  0
 27 75  1  0  0  0  0
 27 76  1  0  0  0  0
 28 77  1  0  0  0  0
 29 78  1  0  0  0  0
 30 79  1  0  0  0  0
 30 80  1  0  0  0  0
 30 81  1  0  0  0  0
 31 33  1  0  0  0  0
 31 82  1  0  0  0  0
 32 33  2  0  0  0  0
 32 41  1  0  0  0  0
 32 43  1  0  0  0  0
 33 83  1  0  0  0  0
 34 36  1  0  0  0  0
 34 84  1  0  0  0  0
 35 36  2  0  0  0  0
 35 42  1  0  0  0  0
 35 44  1  0  0  0  0
 36 85  1  0  0  0  0
 37 86  1  0  0  0  0
 37 87  1  0  0  0  0
 37 88  1  0  0  0  0
 38 89  1  0  0  0  0
 38 90  1  0  0  0  0
 38 91  1  0  0  0  0
 39 45  2  0  0  0  0
 39 92  1  0  0  0  0
 40 46  2  0  0  0  0
 40 93  1  0  0  0  0
 41 94  1  0  0  0  0
 41 95  1  0  0  0  0
 41 96  1  0  0  0  0
 42 97  1  0  0  0  0
 42 98  1  0  0  0  0
 42 99  1  0  0  0  0
 43 47  2  0  0  0  0
 43100  1  0  0  0  0
 44 50  2  0  0  0  0
 44101  1  0  0  0  0
 45 48  1  0  0  0  0
 45102  1  0  0  0  0
 46 49  1  0  0  0  0
 46103  1  0  0  0  0
 47 51  1  0  0  0  0
 47104  1  0  0  0  0
 48105  1  0  0  0  0
 48106  1  0  0  0  0
 48107  1  0  0  0  0
 49108  1  0  0  0  0
 49109  1  0  0  0  0
 49110  1  0  0  0  0
 50 52  1  0  0  0  0
 50111  1  0  0  0  0
 53112  1  0  0  0  0
 53113  1  0  0  0  0
 53114  1  0  0  0  0
M  END
> <PUBCHEM_COMPOUND_CID>
6850846

> <PUBCHEM_COMPOUND_CANONICALIZED>
1

> <PUBCHEM_CACTVS_COMPLEXITY>
1450

> <PUBCHEM_CACTVS_HBOND_ACCEPTOR>
4

> <PUBCHEM_CACTVS_HBOND_DONOR>
1

> <PUBCHEM_CACTVS_ROTATABLE_BOND>
19

> <PUBCHEM_CACTVS_SUBSKEYS>
AAADcfB8OAAAAAAAAAAAAAAAAAAAAAAAAAAAAAAAAAAAAAAAAAAAGgAACAAADACAgAICCAAABgCIAiDSCAAAAAAgAAAICAAAAEgIBAAAIQAAEAAAAAAIsYIAAAAAAAAAAAAAAAAAAAAAAAAAAAAAAAAAAA==

> <PUBCHEM_IUPAC_OPENEYE_NAME>
methyl (2E,4E,6E,8E,10E,12E,14E,16E,18E)-4,8,13,17-tetramethylicosa-2,4,6,8,10,12,14,16,18-nonaenoate;(2E,4E,6E,8E,10E,12E,14E,16E,18E)-4,8,13,17-tetramethylicosa-2,4,6,8,10,12,14,16,18-nonaenoic acid

> <PUBCHEM_IUPAC_CAS_NAME>
(2E,4E,6E,8E,10E,12E,14E,16E,18E)-4,8,13,17-tetramethyleicosa-2,4,6,8,10,12,14,16,18-nonaenoic acid;(2E,4E,6E,8E,10E,12E,14E,16E,18E)-4,8,13,17-tetramethyleicosa-2,4,6,8,10,12,14,16,18-nonaenoic acid methyl ester

> <PUBCHEM_IUPAC_NAME_MARKUP>
methyl (2<I>E</I>,4<I>E</I>,6<I>E</I>,8<I>E</I>,10<I>E</I>,12<I>E</I>,14<I>E</I>,16<I>E</I>,18<I>E</I>)-4,8,13,17-tetramethylicosa-2,4,6,8,10,12,14,16,18-nonaenoate;(2<I>E</I>,4<I>E</I>,6<I>E</I>,8<I>E</I>,10<I>E</I>,12<I>E</I>,14<I>E</I>,16<I>E</I>,18<I>E</I>)-4,8,13,17-tetramethylicosa-2,4,6,8,10,12,14,16,18-nonaenoic acid

> <PUBCHEM_IUPAC_NAME>
methyl (2E,4E,6E,8E,10E,12E,14E,16E,18E)-4,8,13,17-tetramethylicosa-2,4,6,8,10,12,14,16,18-nonaenoate;(2E,4E,6E,8E,10E,12E,14E,16E,18E)-4,8,13,17-tetramethylicosa-2,4,6,8,10,12,14,16,18-nonaenoic acid

> <PUBCHEM_IUPAC_SYSTEMATIC_NAME>
methyl (2E,4E,6E,8E,10E,12E,14E,16E,18E)-4,8,13,17-tetramethylicosa-2,4,6,8,10,12,14,16,18-nonaenoate;(2E,4E,6E,8E,10E,12E,14E,16E,18E)-4,8,13,17-tetramethylicosa-2,4,6,8,10,12,14,16,18-nonaenoic acid

> <PUBCHEM_IUPAC_TRADITIONAL_NAME>
(2E,4E,6E,8E,10E,12E,14E,16E,18E)-4,8,13,17-tetramethyleicosa-2,4,6,8,10,12,14,16,18-nonaenoic acid;(2E,4E,6E,8E,10E,12E,14E,16E,18E)-4,8,13,17-tetramethyleicosa-2,4,6,8,10,12,14,16,18-nonaenoic acid methyl ester

> <PUBCHEM_IUPAC_INCHI>
InChI=1S/C25H32O2.C24H30O2/c1-7-12-21(2)15-10-16-22(3)13-8-9-14-23(4)17-11-18-24(5)19-20-25(26)27-6;1-6-11-20(2)14-9-15-21(3)12-7-8-13-22(4)16-10-17-23(5)18-19-24(25)26/h7-20H,1-6H3;6-19H,1-5H3,(H,25,26)/b9-8+,12-7+,16-10+,17-11+,20-19+,21-15+,22-13+,23-14+,24-18+;8-7+,11-6+,15-9+,16-10+,19-18+,20-14+,21-12+,22-13+,23-17+

> <PUBCHEM_IUPAC_INCHIKEY>
OXQGUUQVEJOSHV-SQILGPCESA-N

> <PUBCHEM_EXACT_MASS>
714.46481

> <PUBCHEM_MOLECULAR_FORMULA>
C49H62O4

> <PUBCHEM_MOLECULAR_WEIGHT>
715

> <PUBCHEM_OPENEYE_CAN_SMILES>
CC=CC(=CC=CC(=CC=CC=C(C)C=CC=C(C)C=CC(=O)O)C)C.CC=CC(=CC=CC(=CC=CC=C(C)C=CC=C(C)C=CC(=O)OC)C)C

> <PUBCHEM_OPENEYE_ISO_SMILES>
C/C=C/C(=C/C=C/C(=C/C=C/C=C(\C)/C=C/C=C(\C)/C=C/C(=O)O)/C)/C.C/C=C/C(=C/C=C/C(=C/C=C/C=C(\C)/C=C/C=C(\C)/C=C/C(=O)OC)/C)/C

> <PUBCHEM_CACTVS_TPSA>
63.6

> <PUBCHEM_MONOISOTOPIC_WEIGHT>
714.46481

> <PUBCHEM_TOTAL_CHARGE>
0

> <PUBCHEM_HEAVY_ATOM_COUNT>
53

> <PUBCHEM_ATOM_DEF_STEREO_COUNT>
0

> <PUBCHEM_ATOM_UDEF_STEREO_COUNT>
0

> <PUBCHEM_BOND_DEF_STEREO_COUNT>
18

> <PUBCHEM_BOND_UDEF_STEREO_COUNT>
0

> <PUBCHEM_ISOTOPIC_ATOM_COUNT>
0

> <PUBCHEM_COMPONENT_COUNT>
2

> <PUBCHEM_CACTVS_TAUTO_COUNT>
-1

> <PUBCHEM_COORDINATE_TYPE>
1
5
255

$$$$
6535604
  -OEChem-04052116402D

 11  8  0     0  0  0  0  0  0999 V2000
    0.0000    1.8660    0.0000 Mn  0  0  0  0  0  0  0  0  0  0  0  0
    3.9030    0.8660    0.0000 S   0  0  0  0  0  0  0  0  0  0  0  0
    4.7690    1.3660    0.0000 O   0  0  0  0  0  0  0  0  0  0  0  0
    3.0369    0.3660    0.0000 O   0  0  0  0  0  0  0  0  0  0  0  0
    3.4030    1.7320    0.0000 O   0  0  0  0  0  0  0  0  0  0  0  0
    4.4030    0.0000    0.0000 O   0  0  0  0  0  0  0  0  0  0  0  0
    3.9030    3.7320    0.0000 O   0  0  0  0  0  0  0  0  0  0  0  0
    5.3059    1.0560    0.0000 H   0  0  0  0  0  0  0  0  0  0  0  0
    2.5000    0.6760    0.0000 H   0  0  0  0  0  0  0  0  0  0  0  0
    4.4399    4.0420    0.0000 H   0  0  0  0  0  0  0  0  0  0  0  0
    3.3660    4.0420    0.0000 H   0  0  0  0  0  0  0  0  0  0  0  0
  2  3  1  0  0  0  0
  2  4  1  0  0  0  0
  2  5  2  0  0  0  0
  2  6  2  0  0  0  0
  3  8  1  0  0  0  0
  4  9  1  0  0  0  0
  7 10  1  0  0  0  0
  7 11  1  0  0  0  0
M  END
> <PUBCHEM_COMPOUND_CID>
6535604

> <PUBCHEM_COMPOUND_CANONICALIZED>
1

> <PUBCHEM_CACTVS_COMPLEXITY>
81.3

> <PUBCHEM_CACTVS_HBOND_ACCEPTOR>
5

> <PUBCHEM_CACTVS_HBOND_DONOR>
3

> <PUBCHEM_CACTVS_ROTATABLE_BOND>
0

> <PUBCHEM_CACTVS_SUBSKEYS>
AAADcYAAOABAAABAAAAAAAAAAAAAAAAAAAAAAAAAAAAAAAAAAAAAAAAACAAAAAAAAAAAAAAAAIAAAAAAADAAAAAAAAAAAAAAAAAAAAAAAAAAAAAAAAAAAAAAAAAAAAAAAAAAAAAAAAAAAAAAAAAAAAAAAA==

> <PUBCHEM_IUPAC_OPENEYE_NAME>
manganese;sulfuric acid;hydrate

> <PUBCHEM_IUPAC_CAS_NAME>
manganese;sulfuric acid;hydrate

> <PUBCHEM_IUPAC_NAME_MARKUP>
manganese;sulfuric acid;hydrate

> <PUBCHEM_IUPAC_NAME>
manganese;sulfuric acid;hydrate

> <PUBCHEM_IUPAC_SYSTEMATIC_NAME>
manganese;sulfuric acid;hydrate

> <PUBCHEM_IUPAC_TRADITIONAL_NAME>
manganese;sulfuric acid;hydrate

> <PUBCHEM_IUPAC_INCHI>
InChI=1S/Mn.H2O4S.H2O/c;1-5(2,3)4;/h;(H2,1,2,3,4);1H2

> <PUBCHEM_IUPAC_INCHIKEY>
VSEWZMQQQHLHQT-UHFFFAOYSA-N

> <PUBCHEM_EXACT_MASS>
170.915988

> <PUBCHEM_MOLECULAR_FORMULA>
H4MnO5S

> <PUBCHEM_MOLECULAR_WEIGHT>
171.03

> <PUBCHEM_OPENEYE_CAN_SMILES>
O.OS(=O)(=O)O.[Mn]

> <PUBCHEM_OPENEYE_ISO_SMILES>
O.OS(=O)(=O)O.[Mn]

> <PUBCHEM_CACTVS_TPSA>
84

> <PUBCHEM_MONOISOTOPIC_WEIGHT>
170.915988

> <PUBCHEM_TOTAL_CHARGE>
0

> <PUBCHEM_HEAVY_ATOM_COUNT>
7

> <PUBCHEM_ATOM_DEF_STEREO_COUNT>
0

> <PUBCHEM_ATOM_UDEF_STEREO_COUNT>
0

> <PUBCHEM_BOND_DEF_STEREO_COUNT>
0

> <PUBCHEM_BOND_UDEF_STEREO_COUNT>
0

> <PUBCHEM_ISOTOPIC_ATOM_COUNT>
0

> <PUBCHEM_COMPONENT_COUNT>
3

> <PUBCHEM_CACTVS_TAUTO_COUNT>
-1

> <PUBCHEM_COORDINATE_TYPE>
1
5
255

$$$$
6473726
  -OEChem-04052116402D

123122  0     1  0  0  0  0  0999 V2000
    6.0010   -6.5670    0.0000 P   0  0  3  0  0  0  0  0  0  0  0  0
    9.4651   -4.5670    0.0000 O   0  0  0  0  0  0  0  0  0  0  0  0
    9.4651   -6.5670    0.0000 O   0  0  0  0  0  0  0  0  0  0  0  0
    8.5991   -3.0670    0.0000 O   0  0  0  0  0  0  0  0  0  0  0  0
    6.8671   -6.0670    0.0000 O   0  0  0  0  0  0  0  0  0  0  0  0
   10.3312   -5.0670    0.0000 O   0  0  0  0  0  0  0  0  0  0  0  0
    5.1350   -7.0670    0.0000 O   0  0  0  0  0  0  0  0  0  0  0  0
    5.5010   -5.7010    0.0000 O   0  5  0  0  0  0  0  0  0  0  0  0
    6.5010   -7.4330    0.0000 O   0  0  0  0  0  0  0  0  0  0  0  0
    2.5369   -6.5670    0.0000 N   0  3  0  0  0  0  0  0  0  0  0  0
   12.9292    1.4330    0.0000 C   0  0  0  0  0  0  0  0  0  0  0  0
   12.9292    2.4330    0.0000 C   0  0  0  0  0  0  0  0  0  0  0  0
   12.0632    0.9330    0.0000 C   0  0  0  0  0  0  0  0  0  0  0  0
   13.7953    2.9330    0.0000 C   0  0  0  0  0  0  0  0  0  0  0  0
   13.7953    3.9330    0.0000 C   0  0  0  0  0  0  0  0  0  0  0  0
   12.0632   -0.0670    0.0000 C   0  0  0  0  0  0  0  0  0  0  0  0
   14.6613    4.4330    0.0000 C   0  0  0  0  0  0  0  0  0  0  0  0
   11.1972   -0.5670    0.0000 C   0  0  0  0  0  0  0  0  0  0  0  0
   14.6613    5.4330    0.0000 C   0  0  0  0  0  0  0  0  0  0  0  0
   11.1972   -1.5670    0.0000 C   0  0  0  0  0  0  0  0  0  0  0  0
   15.5273    5.9330    0.0000 C   0  0  0  0  0  0  0  0  0  0  0  0
   10.3312   -2.0670    0.0000 C   0  0  0  0  0  0  0  0  0  0  0  0
   15.5273    6.9330    0.0000 C   0  0  0  0  0  0  0  0  0  0  0  0
   10.3312   -3.0670    0.0000 C   0  0  0  0  0  0  0  0  0  0  0  0
   16.3933    7.4330    0.0000 C   0  0  0  0  0  0  0  0  0  0  0  0
    9.4651   -3.5670    0.0000 C   0  0  0  0  0  0  0  0  0  0  0  0
   12.9292   -6.5670    0.0000 C   0  0  0  0  0  0  0  0  0  0  0  0
   13.7953   -6.0670    0.0000 C   0  0  0  0  0  0  0  0  0  0  0  0
   12.0632   -6.0670    0.0000 C   0  0  0  0  0  0  0  0  0  0  0  0
   14.6613   -6.5670    0.0000 C   0  0  0  0  0  0  0  0  0  0  0  0
    8.5991   -6.0670    0.0000 C   0  0  2  0  0  0  0  0  0  0  0  0
    8.5991   -5.0670    0.0000 C   0  0  0  0  0  0  0  0  0  0  0  0
   11.1972   -6.5670    0.0000 C   0  0  0  0  0  0  0  0  0  0  0  0
   15.5273   -6.0670    0.0000 C   0  0  0  0  0  0  0  0  0  0  0  0
    7.7331   -6.5670    0.0000 C   0  0  0  0  0  0  0  0  0  0  0  0
   10.3312   -6.0670    0.0000 C   0  0  0  0  0  0  0  0  0  0  0  0
   16.3933   -1.5670    0.0000 C   0  0  0  0  0  0  0  0  0  0  0  0
   17.2594   -2.0670    0.0000 C   0  0  0  0  0  0  0  0  0  0  0  0
   16.3933   -0.5670    0.0000 C   0  0  0  0  0  0  0  0  0  0  0  0
   16.3933   -6.5670    0.0000 C   0  0  0  0  0  0  0  0  0  0  0  0
   17.2594   -3.0670    0.0000 C   0  0  0  0  0  0  0  0  0  0  0  0
   17.2594   -0.0670    0.0000 C   0  0  0  0  0  0  0  0  0  0  0  0
   17.2594   -6.0670    0.0000 C   0  0  0  0  0  0  0  0  0  0  0  0
   17.2594   -5.0670    0.0000 C   0  0  0  0  0  0  0  0  0  0  0  0
   18.1254   -3.5670    0.0000 C   0  0  0  0  0  0  0  0  0  0  0  0
   18.1254   -4.5670    0.0000 C   0  0  0  0  0  0  0  0  0  0  0  0
   17.2594    0.9330    0.0000 C   0  0  0  0  0  0  0  0  0  0  0  0
    4.2690   -6.5670    0.0000 C   0  0  0  0  0  0  0  0  0  0  0  0
    3.4030   -7.0670    0.0000 C   0  0  0  0  0  0  0  0  0  0  0  0
   13.1413    0.8504    0.0000 H   0  0  0  0  0  0  0  0  0  0  0  0
   13.5398    1.5407    0.0000 H   0  0  0  0  0  0  0  0  0  0  0  0
   12.7172    3.0156    0.0000 H   0  0  0  0  0  0  0  0  0  0  0  0
   12.3187    2.3253    0.0000 H   0  0  0  0  0  0  0  0  0  0  0  0
   11.8512    1.5156    0.0000 H   0  0  0  0  0  0  0  0  0  0  0  0
   11.4526    0.8254    0.0000 H   0  0  0  0  0  0  0  0  0  0  0  0
   14.0073    2.3504    0.0000 H   0  0  0  0  0  0  0  0  0  0  0  0
   14.4058    3.0407    0.0000 H   0  0  0  0  0  0  0  0  0  0  0  0
   13.5832    4.5156    0.0000 H   0  0  0  0  0  0  0  0  0  0  0  0
   13.1847    3.8254    0.0000 H   0  0  0  0  0  0  0  0  0  0  0  0
   12.2753   -0.6496    0.0000 H   0  0  0  0  0  0  0  0  0  0  0  0
   12.6738    0.0407    0.0000 H   0  0  0  0  0  0  0  0  0  0  0  0
   14.8733    3.8504    0.0000 H   0  0  0  0  0  0  0  0  0  0  0  0
   15.2719    4.5407    0.0000 H   0  0  0  0  0  0  0  0  0  0  0  0
   10.9851    0.0156    0.0000 H   0  0  0  0  0  0  0  0  0  0  0  0
   10.5866   -0.6746    0.0000 H   0  0  0  0  0  0  0  0  0  0  0  0
   14.4492    6.0156    0.0000 H   0  0  0  0  0  0  0  0  0  0  0  0
   14.0507    5.3254    0.0000 H   0  0  0  0  0  0  0  0  0  0  0  0
   11.4092   -2.1496    0.0000 H   0  0  0  0  0  0  0  0  0  0  0  0
   11.8078   -1.4593    0.0000 H   0  0  0  0  0  0  0  0  0  0  0  0
   15.7394    5.3504    0.0000 H   0  0  0  0  0  0  0  0  0  0  0  0
   16.1379    6.0407    0.0000 H   0  0  0  0  0  0  0  0  0  0  0  0
   10.1191   -1.4844    0.0000 H   0  0  0  0  0  0  0  0  0  0  0  0
    9.7206   -2.1747    0.0000 H   0  0  0  0  0  0  0  0  0  0  0  0
   15.3153    7.5156    0.0000 H   0  0  0  0  0  0  0  0  0  0  0  0
   14.9167    6.8254    0.0000 H   0  0  0  0  0  0  0  0  0  0  0  0
   10.5432   -3.6496    0.0000 H   0  0  0  0  0  0  0  0  0  0  0  0
   10.9417   -2.9593    0.0000 H   0  0  0  0  0  0  0  0  0  0  0  0
   16.7033    6.8961    0.0000 H   0  0  0  0  0  0  0  0  0  0  0  0
   16.9303    7.7430    0.0000 H   0  0  0  0  0  0  0  0  0  0  0  0
   16.0833    7.9700    0.0000 H   0  0  0  0  0  0  0  0  0  0  0  0
   12.5307   -7.0419    0.0000 H   0  0  0  0  0  0  0  0  0  0  0  0
   13.3278   -7.0419    0.0000 H   0  0  0  0  0  0  0  0  0  0  0  0
   14.1938   -5.5920    0.0000 H   0  0  0  0  0  0  0  0  0  0  0  0
   13.3967   -5.5920    0.0000 H   0  0  0  0  0  0  0  0  0  0  0  0
   12.4617   -5.5920    0.0000 H   0  0  0  0  0  0  0  0  0  0  0  0
   11.6647   -5.5920    0.0000 H   0  0  0  0  0  0  0  0  0  0  0  0
   14.2628   -7.0419    0.0000 H   0  0  0  0  0  0  0  0  0  0  0  0
   15.0598   -7.0419    0.0000 H   0  0  0  0  0  0  0  0  0  0  0  0
    8.5991   -6.6870    0.0000 H   0  0  0  0  0  0  0  0  0  0  0  0
   10.7987   -7.0419    0.0000 H   0  0  0  0  0  0  0  0  0  0  0  0
   11.5957   -7.0419    0.0000 H   0  0  0  0  0  0  0  0  0  0  0  0
    8.3871   -4.4844    0.0000 H   0  0  0  0  0  0  0  0  0  0  0  0
    7.9885   -5.1746    0.0000 H   0  0  0  0  0  0  0  0  0  0  0  0
   15.9258   -5.5920    0.0000 H   0  0  0  0  0  0  0  0  0  0  0  0
   15.1288   -5.5920    0.0000 H   0  0  0  0  0  0  0  0  0  0  0  0
    7.3346   -7.0419    0.0000 H   0  0  0  0  0  0  0  0  0  0  0  0
    8.1316   -7.0419    0.0000 H   0  0  0  0  0  0  0  0  0  0  0  0
   15.7828   -1.4593    0.0000 H   0  0  0  0  0  0  0  0  0  0  0  0
   16.1813   -2.1496    0.0000 H   0  0  0  0  0  0  0  0  0  0  0  0
   17.8699   -2.1747    0.0000 H   0  0  0  0  0  0  0  0  0  0  0  0
   17.4714   -1.4844    0.0000 H   0  0  0  0  0  0  0  0  0  0  0  0
   16.1813    0.0156    0.0000 H   0  0  0  0  0  0  0  0  0  0  0  0
   15.7828   -0.6746    0.0000 H   0  0  0  0  0  0  0  0  0  0  0  0
   16.3933   -7.1870    0.0000 H   0  0  0  0  0  0  0  0  0  0  0  0
   16.6488   -2.9593    0.0000 H   0  0  0  0  0  0  0  0  0  0  0  0
   17.0473   -3.6496    0.0000 H   0  0  0  0  0  0  0  0  0  0  0  0
   17.4714   -0.6496    0.0000 H   0  0  0  0  0  0  0  0  0  0  0  0
   17.8699    0.0407    0.0000 H   0  0  0  0  0  0  0  0  0  0  0  0
   17.7963   -6.3770    0.0000 H   0  0  0  0  0  0  0  0  0  0  0  0
   17.0473   -4.4844    0.0000 H   0  0  0  0  0  0  0  0  0  0  0  0
   16.6488   -5.1746    0.0000 H   0  0  0  0  0  0  0  0  0  0  0  0
   18.6623   -3.2570    0.0000 H   0  0  0  0  0  0  0  0  0  0  0  0
   18.6623   -4.8770    0.0000 H   0  0  0  0  0  0  0  0  0  0  0  0
   17.8794    0.9330    0.0000 H   0  0  0  0  0  0  0  0  0  0  0  0
   17.2594    1.5530    0.0000 H   0  0  0  0  0  0  0  0  0  0  0  0
   16.6394    0.9330    0.0000 H   0  0  0  0  0  0  0  0  0  0  0  0
    4.6675   -6.0920    0.0000 H   0  0  0  0  0  0  0  0  0  0  0  0
    3.8705   -6.0920    0.0000 H   0  0  0  0  0  0  0  0  0  0  0  0
    3.0044   -7.5419    0.0000 H   0  0  0  0  0  0  0  0  0  0  0  0
    3.8015   -7.5419    0.0000 H   0  0  0  0  0  0  0  0  0  0  0  0
    2.0000   -6.2570    0.0000 H   0  0  0  0  0  0  0  0  0  0  0  0
    2.2269   -7.1039    0.0000 H   0  0  0  0  0  0  0  0  0  0  0  0
    2.8469   -6.0300    0.0000 H   0  0  0  0  0  0  0  0  0  0  0  0
  1  5  1  0  0  0  0
  1  7  1  0  0  0  0
  1  8  1  0  0  0  0
  1  9  2  0  0  0  0
  2 26  1  0  0  0  0
  2 32  1  0  0  0  0
 31  3  1  1  0  0  0
  3 36  1  0  0  0  0
  4 26  2  0  0  0  0
  5 35  1  0  0  0  0
  6 36  2  0  0  0  0
  7 48  1  0  0  0  0
 10 49  1  0  0  0  0
 10121  1  0  0  0  0
 10122  1  0  0  0  0
 10123  1  0  0  0  0
 11 12  1  0  0  0  0
 11 13  1  0  0  0  0
 11 50  1  0  0  0  0
 11 51  1  0  0  0  0
 12 14  1  0  0  0  0
 12 52  1  0  0  0  0
 12 53  1  0  0  0  0
 13 16  1  0  0  0  0
 13 54  1  0  0  0  0
 13 55  1  0  0  0  0
 14 15  1  0  0  0  0
 14 56  1  0  0  0  0
 14 57  1  0  0  0  0
 15 17  1  0  0  0  0
 15 58  1  0  0  0  0
 15 59  1  0  0  0  0
 16 18  1  0  0  0  0
 16 60  1  0  0  0  0
 16 61  1  0  0  0  0
 17 19  1  0  0  0  0
 17 62  1  0  0  0  0
 17 63  1  0  0  0  0
 18 20  1  0  0  0  0
 18 64  1  0  0  0  0
 18 65  1  0  0  0  0
 19 21  1  0  0  0  0
 19 66  1  0  0  0  0
 19 67  1  0  0  0  0
 20 22  1  0  0  0  0
 20 68  1  0  0  0  0
 20 69  1  0  0  0  0
 21 23  1  0  0  0  0
 21 70  1  0  0  0  0
 21 71  1  0  0  0  0
 22 24  1  0  0  0  0
 22 72  1  0  0  0  0
 22 73  1  0  0  0  0
 23 25  1  0  0  0  0
 23 74  1  0  0  0  0
 23 75  1  0  0  0  0
 24 26  1  0  0  0  0
 24 76  1  0  0  0  0
 24 77  1  0  0  0  0
 25 78  1  0  0  0  0
 25 79  1  0  0  0  0
 25 80  1  0  0  0  0
 27 28  1  0  0  0  0
 27 29  1  0  0  0  0
 27 81  1  0  0  0  0
 27 82  1  0  0  0  0
 28 30  1  0  0  0  0
 28 83  1  0  0  0  0
 28 84  1  0  0  0  0
 29 33  1  0  0  0  0
 29 85  1  0  0  0  0
 29 86  1  0  0  0  0
 30 34  1  0  0  0  0
 30 87  1  0  0  0  0
 30 88  1  0  0  0  0
 31 32  1  0  0  0  0
 31 35  1  0  0  0  0
 31 89  1  0  0  0  0
 32 92  1  0  0  0  0
 32 93  1  0  0  0  0
 33 36  1  0  0  0  0
 33 90  1  0  0  0  0
 33 91  1  0  0  0  0
 34 40  1  0  0  0  0
 34 94  1  0  0  0  0
 34 95  1  0  0  0  0
 35 96  1  0  0  0  0
 35 97  1  0  0  0  0
 37 38  1  0  0  0  0
 37 39  1  0  0  0  0
 37 98  1  0  0  0  0
 37 99  1  0  0  0  0
 38 41  1  0  0  0  0
 38100  1  0  0  0  0
 38101  1  0  0  0  0
 39 42  1  0  0  0  0
 39102  1  0  0  0  0
 39103  1  0  0  0  0
 40 43  2  0  0  0  0
 40104  1  0  0  0  0
 41 45  1  0  0  0  0
 41105  1  0  0  0  0
 41106  1  0  0  0  0
 42 47  1  0  0  0  0
 42107  1  0  0  0  0
 42108  1  0  0  0  0
 43 44  1  0  0  0  0
 43109  1  0  0  0  0
 44 46  1  0  0  0  0
 44110  1  0  0  0  0
 44111  1  0  0  0  0
 45 46  2  0  0  0  0
 45112  1  0  0  0  0
 46113  1  0  0  0  0
 47114  1  0  0  0  0
 47115  1  0  0  0  0
 47116  1  0  0  0  0
 48 49  1  0  0  0  0
 48117  1  0  0  0  0
 48118  1  0  0  0  0
 49119  1  0  0  0  0
 49120  1  0  0  0  0
M  CHG  2   8  -1  10   1
M  END
> <PUBCHEM_COMPOUND_CID>
6473726

> <PUBCHEM_COMPOUND_CANONICALIZED>
1

> <PUBCHEM_CACTVS_COMPLEXITY>
858

> <PUBCHEM_CACTVS_HBOND_ACCEPTOR>
8

> <PUBCHEM_CACTVS_HBOND_DONOR>
1

> <PUBCHEM_CACTVS_ROTATABLE_BOND>
39

> <PUBCHEM_CACTVS_SUBSKEYS>
AAADcfB+PAIAAAAAAAAAAAAAAAAAAAAAAAAAAAAAAAAAAAAAAAAAHgAQACAACBThgAYCCABABRCIQCDSCIAAAAAgAAAICIEAAAgDABIAAQACAAAFkAAKAAOIyKCAAAAAAAAAAAAAAAAAAAAAAAAAAAAAAA==

> <PUBCHEM_IUPAC_OPENEYE_NAME>
2-azaniumylethyl [(2R)-3-hexadecanoyloxy-2-[(8Z,11Z)-octadeca-8,11-dienoyl]oxy-propyl] phosphate

> <PUBCHEM_IUPAC_CAS_NAME>
2-ammonioethyl [(2R)-3-(1-oxohexadecoxy)-2-[(8Z,11Z)-1-oxooctadeca-8,11-dienoxy]propyl] phosphate

> <PUBCHEM_IUPAC_NAME_MARKUP>
2-azaniumylethyl [(2<I>R</I>)-3-hexadecanoyloxy-2-[(8<I>Z</I>,11<I>Z</I>)-octadeca-8,11-dienoyl]oxypropyl] phosphate

> <PUBCHEM_IUPAC_NAME>
2-azaniumylethyl [(2R)-3-hexadecanoyloxy-2-[(8Z,11Z)-octadeca-8,11-dienoyl]oxypropyl] phosphate

> <PUBCHEM_IUPAC_SYSTEMATIC_NAME>
2-azaniumylethyl [(2R)-3-hexadecanoyloxy-2-[(8Z,11Z)-octadeca-8,11-dienoyl]oxy-propyl] phosphate

> <PUBCHEM_IUPAC_TRADITIONAL_NAME>
2-ammonioethyl [(2R)-3-hexadecanoyloxy-2-[(8Z,11Z)-octadeca-8,11-dienoyl]oxy-propyl] phosphate

> <PUBCHEM_IUPAC_INCHI>
InChI=1S/C39H74NO8P/c1-3-5-7-9-11-13-15-17-18-20-22-24-26-28-30-32-39(42)48-37(36-47-49(43,44)46-34-33-40)35-45-38(41)31-29-27-25-23-21-19-16-14-12-10-8-6-4-2/h13,15,18,20,37H,3-12,14,16-17,19,21-36,40H2,1-2H3,(H,43,44)/b15-13-,20-18-/t37-/m1/s1

> <PUBCHEM_IUPAC_INCHIKEY>
KDNRQHXPNDWDEW-SLLMOJSDSA-N

> <PUBCHEM_XLOGP3_AA>
11.9

> <PUBCHEM_EXACT_MASS>
715.515205

> <PUBCHEM_MOLECULAR_FORMULA>
C39H74NO8P

> <PUBCHEM_MOLECULAR_WEIGHT>
716

> <PUBCHEM_OPENEYE_CAN_SMILES>
CCCCCCCCCCCCCCCC(=O)OCC(COP(=O)([O-])OCC[NH3+])OC(=O)CCCCCCC=CCC=CCCCCCC

> <PUBCHEM_OPENEYE_ISO_SMILES>
CCCCCCCCCCCCCCCC(=O)OC[C@H](COP(=O)([O-])OCC[NH3+])OC(=O)CCCCCC/C=C\C/C=C\CCCCCC

> <PUBCHEM_CACTVS_TPSA>
139

> <PUBCHEM_MONOISOTOPIC_WEIGHT>
715.515205

> <PUBCHEM_TOTAL_CHARGE>
0

> <PUBCHEM_HEAVY_ATOM_COUNT>
49

> <PUBCHEM_ATOM_DEF_STEREO_COUNT>
1

> <PUBCHEM_ATOM_UDEF_STEREO_COUNT>
0

> <PUBCHEM_BOND_DEF_STEREO_COUNT>
2

> <PUBCHEM_BOND_UDEF_STEREO_COUNT>
0

> <PUBCHEM_ISOTOPIC_ATOM_COUNT>
0

> <PUBCHEM_COMPONENT_COUNT>
1

> <PUBCHEM_CACTVS_TAUTO_COUNT>
-1

> <PUBCHEM_COORDINATE_TYPE>
1
5
255

> <PUBCHEM_BONDANNOTATIONS>
31  3  5

$$$$
6473725
  -OEChem-04052116402D

136136  0     1  0  0  0  0  0999 V2000
    5.1350   -2.6550    0.0000 P   0  0  3  0  0  0  0  0  0  0  0  0
    4.2690   -3.1550    0.0000 O   0  0  0  0  0  0  0  0  0  0  0  0
    6.0010   -4.1550    0.0000 O   0  0  0  0  0  0  0  0  0  0  0  0
    2.5369   -4.1550    0.0000 O   0  0  0  0  0  0  0  0  0  0  0  0
    6.0010   -6.1550    0.0000 O   0  0  0  0  0  0  0  0  0  0  0  0
    2.5369   -6.1550    0.0000 O   0  0  0  0  0  0  0  0  0  0  0  0
    4.2690   -7.1550    0.0000 O   0  0  0  0  0  0  0  0  0  0  0  0
    6.0010   -2.1550    0.0000 O   0  0  0  0  0  0  0  0  0  0  0  0
    4.6350   -1.7890    0.0000 O   0  0  0  0  0  0  0  0  0  0  0  0
    5.6350   -3.5210    0.0000 O   0  0  0  0  0  0  0  0  0  0  0  0
    6.8671    0.3450    0.0000 O   0  0  0  0  0  0  0  0  0  0  0  0
    8.5991   -0.6550    0.0000 O   0  0  0  0  0  0  0  0  0  0  0  0
    8.5991    0.3450    0.0000 O   0  0  0  0  0  0  0  0  0  0  0  0
    9.4651   -2.1550    0.0000 O   0  0  0  0  0  0  0  0  0  0  0  0
    4.2690   -4.1550    0.0000 C   0  0  0  0  0  0  0  0  0  0  0  0
    5.1350   -4.6550    0.0000 C   0  0  2  0  0  0  0  0  0  0  0  0
    3.4030   -4.6550    0.0000 C   0  0  2  0  0  0  0  0  0  0  0  0
    5.1350   -5.6550    0.0000 C   0  0  1  0  0  0  0  0  0  0  0  0
    3.4030   -5.6550    0.0000 C   0  0  2  0  0  0  0  0  0  0  0  0
    4.2690   -6.1550    0.0000 C   0  0  0  0  0  0  0  0  0  0  0  0
    6.0010   -1.1550    0.0000 C   0  0  0  0  0  0  0  0  0  0  0  0
    6.8671   -0.6550    0.0000 C   0  0  1  0  0  0  0  0  0  0  0  0
   15.5273   -0.6550    0.0000 C   0  0  0  0  0  0  0  0  0  0  0  0
   16.3933   -1.1550    0.0000 C   0  0  0  0  0  0  0  0  0  0  0  0
    7.7331   -1.1550    0.0000 C   0  0  0  0  0  0  0  0  0  0  0  0
   14.6613   -1.1550    0.0000 C   0  0  0  0  0  0  0  0  0  0  0  0
   17.2594   -0.6550    0.0000 C   0  0  0  0  0  0  0  0  0  0  0  0
   13.7953   -0.6550    0.0000 C   0  0  0  0  0  0  0  0  0  0  0  0
   18.1254   -1.1550    0.0000 C   0  0  0  0  0  0  0  0  0  0  0  0
   12.9292   -1.1550    0.0000 C   0  0  0  0  0  0  0  0  0  0  0  0
   18.9914   -0.6550    0.0000 C   0  0  0  0  0  0  0  0  0  0  0  0
   12.0632   -0.6550    0.0000 C   0  0  0  0  0  0  0  0  0  0  0  0
   19.8574   -1.1550    0.0000 C   0  0  0  0  0  0  0  0  0  0  0  0
   11.1972   -1.1550    0.0000 C   0  0  0  0  0  0  0  0  0  0  0  0
   10.3312   -0.6550    0.0000 C   0  0  0  0  0  0  0  0  0  0  0  0
   20.7235   -0.6550    0.0000 C   0  0  0  0  0  0  0  0  0  0  0  0
    7.7331    0.8450    0.0000 C   0  0  0  0  0  0  0  0  0  0  0  0
    9.4651   -1.1550    0.0000 C   0  0  0  0  0  0  0  0  0  0  0  0
   21.5895   -1.1550    0.0000 C   0  0  0  0  0  0  0  0  0  0  0  0
    7.7331    1.8450    0.0000 C   0  0  0  0  0  0  0  0  0  0  0  0
    8.5991    2.3450    0.0000 C   0  0  0  0  0  0  0  0  0  0  0  0
    8.5991    3.3450    0.0000 C   0  0  0  0  0  0  0  0  0  0  0  0
    9.4651    3.8450    0.0000 C   0  0  0  0  0  0  0  0  0  0  0  0
   22.4555   -0.6550    0.0000 C   0  0  0  0  0  0  0  0  0  0  0  0
    9.4651    4.8450    0.0000 C   0  0  0  0  0  0  0  0  0  0  0  0
   10.3312    5.3450    0.0000 C   0  0  0  0  0  0  0  0  0  0  0  0
   10.3312    6.3450    0.0000 C   0  0  0  0  0  0  0  0  0  0  0  0
   14.6613    3.8450    0.0000 C   0  0  0  0  0  0  0  0  0  0  0  0
   14.6613    4.8450    0.0000 C   0  0  0  0  0  0  0  0  0  0  0  0
   15.5273    3.3450    0.0000 C   0  0  0  0  0  0  0  0  0  0  0  0
   11.1972    6.8450    0.0000 C   0  0  0  0  0  0  0  0  0  0  0  0
   13.7953    5.3450    0.0000 C   0  0  0  0  0  0  0  0  0  0  0  0
   12.0632    6.3450    0.0000 C   0  0  0  0  0  0  0  0  0  0  0  0
   16.3933    3.8450    0.0000 C   0  0  0  0  0  0  0  0  0  0  0  0
   13.7953    6.3450    0.0000 C   0  0  0  0  0  0  0  0  0  0  0  0
   12.9292    6.8450    0.0000 C   0  0  0  0  0  0  0  0  0  0  0  0
   17.2594    3.3450    0.0000 C   0  0  0  0  0  0  0  0  0  0  0  0
    4.8059   -3.8450    0.0000 H   0  0  0  0  0  0  0  0  0  0  0  0
    5.6720   -4.9650    0.0000 H   0  0  0  0  0  0  0  0  0  0  0  0
    3.4030   -4.0350    0.0000 H   0  0  0  0  0  0  0  0  0  0  0  0
    5.1350   -6.2750    0.0000 H   0  0  0  0  0  0  0  0  0  0  0  0
    3.4030   -6.2750    0.0000 H   0  0  0  0  0  0  0  0  0  0  0  0
    3.7320   -6.4650    0.0000 H   0  0  0  0  0  0  0  0  0  0  0  0
    6.5380   -4.4650    0.0000 H   0  0  0  0  0  0  0  0  0  0  0  0
    2.0000   -4.4650    0.0000 H   0  0  0  0  0  0  0  0  0  0  0  0
    6.0010   -6.7750    0.0000 H   0  0  0  0  0  0  0  0  0  0  0  0
    2.5369   -6.7750    0.0000 H   0  0  0  0  0  0  0  0  0  0  0  0
    3.7320   -7.4650    0.0000 H   0  0  0  0  0  0  0  0  0  0  0  0
    4.0150   -1.7890    0.0000 H   0  0  0  0  0  0  0  0  0  0  0  0
    5.7890   -0.5724    0.0000 H   0  0  0  0  0  0  0  0  0  0  0  0
    5.3905   -1.2627    0.0000 H   0  0  0  0  0  0  0  0  0  0  0  0
    6.3301   -0.3450    0.0000 H   0  0  0  0  0  0  0  0  0  0  0  0
   15.9258   -0.1801    0.0000 H   0  0  0  0  0  0  0  0  0  0  0  0
   15.1288   -0.1801    0.0000 H   0  0  0  0  0  0  0  0  0  0  0  0
   15.9948   -1.6300    0.0000 H   0  0  0  0  0  0  0  0  0  0  0  0
   16.7919   -1.6300    0.0000 H   0  0  0  0  0  0  0  0  0  0  0  0
   14.2628   -1.6300    0.0000 H   0  0  0  0  0  0  0  0  0  0  0  0
   15.0598   -1.6300    0.0000 H   0  0  0  0  0  0  0  0  0  0  0  0
    7.3346   -1.6300    0.0000 H   0  0  0  0  0  0  0  0  0  0  0  0
    8.1316   -1.6300    0.0000 H   0  0  0  0  0  0  0  0  0  0  0  0
   17.6579   -0.1801    0.0000 H   0  0  0  0  0  0  0  0  0  0  0  0
   16.8608   -0.1801    0.0000 H   0  0  0  0  0  0  0  0  0  0  0  0
   14.1938   -0.1801    0.0000 H   0  0  0  0  0  0  0  0  0  0  0  0
   13.3967   -0.1801    0.0000 H   0  0  0  0  0  0  0  0  0  0  0  0
   17.7269   -1.6300    0.0000 H   0  0  0  0  0  0  0  0  0  0  0  0
   18.5239   -1.6300    0.0000 H   0  0  0  0  0  0  0  0  0  0  0  0
   12.5307   -1.6300    0.0000 H   0  0  0  0  0  0  0  0  0  0  0  0
   13.3278   -1.6300    0.0000 H   0  0  0  0  0  0  0  0  0  0  0  0
   19.3899   -0.1801    0.0000 H   0  0  0  0  0  0  0  0  0  0  0  0
   18.5929   -0.1801    0.0000 H   0  0  0  0  0  0  0  0  0  0  0  0
   12.4617   -0.1801    0.0000 H   0  0  0  0  0  0  0  0  0  0  0  0
   11.6647   -0.1801    0.0000 H   0  0  0  0  0  0  0  0  0  0  0  0
   19.4589   -1.6300    0.0000 H   0  0  0  0  0  0  0  0  0  0  0  0
   20.2560   -1.6300    0.0000 H   0  0  0  0  0  0  0  0  0  0  0  0
   10.7987   -1.6300    0.0000 H   0  0  0  0  0  0  0  0  0  0  0  0
   11.5957   -1.6300    0.0000 H   0  0  0  0  0  0  0  0  0  0  0  0
   21.1220   -0.1801    0.0000 H   0  0  0  0  0  0  0  0  0  0  0  0
   20.3249   -0.1801    0.0000 H   0  0  0  0  0  0  0  0  0  0  0  0
   10.7297   -0.1801    0.0000 H   0  0  0  0  0  0  0  0  0  0  0  0
    9.9326   -0.1801    0.0000 H   0  0  0  0  0  0  0  0  0  0  0  0
   21.1910   -1.6300    0.0000 H   0  0  0  0  0  0  0  0  0  0  0  0
   21.9880   -1.6300    0.0000 H   0  0  0  0  0  0  0  0  0  0  0  0
    7.5210    2.4276    0.0000 H   0  0  0  0  0  0  0  0  0  0  0  0
    7.1225    1.7373    0.0000 H   0  0  0  0  0  0  0  0  0  0  0  0
    8.8112    1.7624    0.0000 H   0  0  0  0  0  0  0  0  0  0  0  0
    9.2097    2.4527    0.0000 H   0  0  0  0  0  0  0  0  0  0  0  0
    8.3871    3.9276    0.0000 H   0  0  0  0  0  0  0  0  0  0  0  0
    7.9885    3.2373    0.0000 H   0  0  0  0  0  0  0  0  0  0  0  0
    9.6772    3.2624    0.0000 H   0  0  0  0  0  0  0  0  0  0  0  0
   10.0757    3.9527    0.0000 H   0  0  0  0  0  0  0  0  0  0  0  0
   22.7655   -1.1919    0.0000 H   0  0  0  0  0  0  0  0  0  0  0  0
   22.9925   -0.3450    0.0000 H   0  0  0  0  0  0  0  0  0  0  0  0
   22.1455   -0.1181    0.0000 H   0  0  0  0  0  0  0  0  0  0  0  0
    9.2531    5.4276    0.0000 H   0  0  0  0  0  0  0  0  0  0  0  0
    8.8546    4.7373    0.0000 H   0  0  0  0  0  0  0  0  0  0  0  0
   10.5432    4.7624    0.0000 H   0  0  0  0  0  0  0  0  0  0  0  0
   10.9417    5.4527    0.0000 H   0  0  0  0  0  0  0  0  0  0  0  0
    9.7942    6.6550    0.0000 H   0  0  0  0  0  0  0  0  0  0  0  0
   14.0507    3.9527    0.0000 H   0  0  0  0  0  0  0  0  0  0  0  0
   14.4492    3.2624    0.0000 H   0  0  0  0  0  0  0  0  0  0  0  0
   15.2719    4.7373    0.0000 H   0  0  0  0  0  0  0  0  0  0  0  0
   14.8733    5.4276    0.0000 H   0  0  0  0  0  0  0  0  0  0  0  0
   15.1288    2.8700    0.0000 H   0  0  0  0  0  0  0  0  0  0  0  0
   15.9258    2.8700    0.0000 H   0  0  0  0  0  0  0  0  0  0  0  0
   13.1847    5.4527    0.0000 H   0  0  0  0  0  0  0  0  0  0  0  0
   13.5832    4.7624    0.0000 H   0  0  0  0  0  0  0  0  0  0  0  0
   11.1972    7.4650    0.0000 H   0  0  0  0  0  0  0  0  0  0  0  0
   11.6647    5.8700    0.0000 H   0  0  0  0  0  0  0  0  0  0  0  0
   12.4617    5.8700    0.0000 H   0  0  0  0  0  0  0  0  0  0  0  0
   16.7919    4.3200    0.0000 H   0  0  0  0  0  0  0  0  0  0  0  0
   15.9948    4.3200    0.0000 H   0  0  0  0  0  0  0  0  0  0  0  0
   14.3322    6.6550    0.0000 H   0  0  0  0  0  0  0  0  0  0  0  0
   12.9292    7.4650    0.0000 H   0  0  0  0  0  0  0  0  0  0  0  0
   16.9494    2.8081    0.0000 H   0  0  0  0  0  0  0  0  0  0  0  0
   17.7963    3.0350    0.0000 H   0  0  0  0  0  0  0  0  0  0  0  0
   17.5694    3.8819    0.0000 H   0  0  0  0  0  0  0  0  0  0  0  0
  1  2  1  0  0  0  0
  1  8  1  0  0  0  0
  1  9  1  0  0  0  0
  1 10  2  0  0  0  0
  2 15  1  0  0  0  0
 16  3  1  1  0  0  0
  3 64  1  0  0  0  0
 17  4  1  6  0  0  0
  4 65  1  0  0  0  0
 18  5  1  6  0  0  0
  5 66  1  0  0  0  0
 19  6  1  6  0  0  0
  6 67  1  0  0  0  0
  7 20  1  0  0  0  0
  7 68  1  0  0  0  0
  8 21  1  0  0  0  0
  9 69  1  0  0  0  0
 22 11  1  6  0  0  0
 11 37  1  0  0  0  0
 12 25  1  0  0  0  0
 12 38  1  0  0  0  0
 13 37  2  0  0  0  0
 14 38  2  0  0  0  0
 15 16  1  0  0  0  0
 15 17  1  0  0  0  0
 15 58  1  0  0  0  0
 16 18  1  0  0  0  0
 16 59  1  0  0  0  0
 17 19  1  0  0  0  0
 17 60  1  0  0  0  0
 18 20  1  0  0  0  0
 18 61  1  0  0  0  0
 19 20  1  0  0  0  0
 19 62  1  0  0  0  0
 20 63  1  0  0  0  0
 21 22  1  0  0  0  0
 21 70  1  0  0  0  0
 21 71  1  0  0  0  0
 22 25  1  0  0  0  0
 22 72  1  0  0  0  0
 23 24  1  0  0  0  0
 23 26  1  0  0  0  0
 23 73  1  0  0  0  0
 23 74  1  0  0  0  0
 24 27  1  0  0  0  0
 24 75  1  0  0  0  0
 24 76  1  0  0  0  0
 25 79  1  0  0  0  0
 25 80  1  0  0  0  0
 26 28  1  0  0  0  0
 26 77  1  0  0  0  0
 26 78  1  0  0  0  0
 27 29  1  0  0  0  0
 27 81  1  0  0  0  0
 27 82  1  0  0  0  0
 28 30  1  0  0  0  0
 28 83  1  0  0  0  0
 28 84  1  0  0  0  0
 29 31  1  0  0  0  0
 29 85  1  0  0  0  0
 29 86  1  0  0  0  0
 30 32  1  0  0  0  0
 30 87  1  0  0  0  0
 30 88  1  0  0  0  0
 31 33  1  0  0  0  0
 31 89  1  0  0  0  0
 31 90  1  0  0  0  0
 32 34  1  0  0  0  0
 32 91  1  0  0  0  0
 32 92  1  0  0  0  0
 33 36  1  0  0  0  0
 33 93  1  0  0  0  0
 33 94  1  0  0  0  0
 34 35  1  0  0  0  0
 34 95  1  0  0  0  0
 34 96  1  0  0  0  0
 35 38  1  0  0  0  0
 35 99  1  0  0  0  0
 35100  1  0  0  0  0
 36 39  1  0  0  0  0
 36 97  1  0  0  0  0
 36 98  1  0  0  0  0
 37 40  1  0  0  0  0
 39 44  1  0  0  0  0
 39101  1  0  0  0  0
 39102  1  0  0  0  0
 40 41  1  0  0  0  0
 40103  1  0  0  0  0
 40104  1  0  0  0  0
 41 42  1  0  0  0  0
 41105  1  0  0  0  0
 41106  1  0  0  0  0
 42 43  1  0  0  0  0
 42107  1  0  0  0  0
 42108  1  0  0  0  0
 43 45  1  0  0  0  0
 43109  1  0  0  0  0
 43110  1  0  0  0  0
 44111  1  0  0  0  0
 44112  1  0  0  0  0
 44113  1  0  0  0  0
 45 46  1  0  0  0  0
 45114  1  0  0  0  0
 45115  1  0  0  0  0
 46 47  1  0  0  0  0
 46116  1  0  0  0  0
 46117  1  0  0  0  0
 47 51  2  0  0  0  0
 47118  1  0  0  0  0
 48 49  1  0  0  0  0
 48 50  1  0  0  0  0
 48119  1  0  0  0  0
 48120  1  0  0  0  0
 49 52  1  0  0  0  0
 49121  1  0  0  0  0
 49122  1  0  0  0  0
 50 54  1  0  0  0  0
 50123  1  0  0  0  0
 50124  1  0  0  0  0
 51 53  1  0  0  0  0
 51127  1  0  0  0  0
 52 55  1  0  0  0  0
 52125  1  0  0  0  0
 52126  1  0  0  0  0
 53 56  1  0  0  0  0
 53128  1  0  0  0  0
 53129  1  0  0  0  0
 54 57  1  0  0  0  0
 54130  1  0  0  0  0
 54131  1  0  0  0  0
 55 56  2  0  0  0  0
 55132  1  0  0  0  0
 56133  1  0  0  0  0
 57134  1  0  0  0  0
 57135  1  0  0  0  0
 57136  1  0  0  0  0
M  END
> <PUBCHEM_COMPOUND_CID>
6473725

> <PUBCHEM_COMPOUND_CANONICALIZED>
1

> <PUBCHEM_CACTVS_COMPLEXITY>
1100

> <PUBCHEM_CACTVS_HBOND_ACCEPTOR>
13

> <PUBCHEM_CACTVS_HBOND_DONOR>
6

> <PUBCHEM_CACTVS_ROTATABLE_BOND>
38

> <PUBCHEM_CACTVS_SUBSKEYS>
AAADcfB8PAIAAAAAAAAAAAAAAAAAAAAAAAAwAAAAAAAAAAAAAAAAGgAACCAACBSggAICCAAABxCIQCDSCIAAAAAgAAAICAEAAAgBEBIAAQACQAAFgAALAAPI6KSAAAAAAAAAAAACAAAQAACAAAAAAAAAAA==

> <PUBCHEM_IUPAC_OPENEYE_NAME>
[(1R)-1-(hexadecanoyloxymethyl)-2-[hydroxy-[(2S,3R,5S,6S)-2,3,4,5,6-pentahydroxycyclohexoxy]phosphoryl]oxy-ethyl] (8Z,11Z)-octadeca-8,11-dienoate

> <PUBCHEM_IUPAC_CAS_NAME>
(8Z,11Z)-octadeca-8,11-dienoic acid [(2R)-1-[hydroxy-[(2S,3R,5S,6S)-2,3,4,5,6-pentahydroxycyclohexyl]oxyphosphoryl]oxy-3-(1-oxohexadecoxy)propan-2-yl] ester

> <PUBCHEM_IUPAC_NAME_MARKUP>
[(2<I>R</I>)-1-hexadecanoyloxy-3-[hydroxy-[(2<I>S</I>,3<I>R</I>,5<I>S</I>,6<I>S</I>)-2,3,4,5,6-pentahydroxycyclohexyl]oxyphosphoryl]oxypropan-2-yl] (8<I>Z</I>,11<I>Z</I>)-octadeca-8,11-dienoate

> <PUBCHEM_IUPAC_NAME>
[(2R)-1-hexadecanoyloxy-3-[hydroxy-[(2S,3R,5S,6S)-2,3,4,5,6-pentahydroxycyclohexyl]oxyphosphoryl]oxypropan-2-yl] (8Z,11Z)-octadeca-8,11-dienoate

> <PUBCHEM_IUPAC_SYSTEMATIC_NAME>
[(2R)-1-hexadecanoyloxy-3-[oxidanyl-[(2S,3R,5S,6S)-2,3,4,5,6-pentakis(oxidanyl)cyclohexyl]oxy-phosphoryl]oxy-propan-2-yl] (8Z,11Z)-octadeca-8,11-dienoate

> <PUBCHEM_IUPAC_TRADITIONAL_NAME>
(8Z,11Z)-octadeca-8,11-dienoic acid [(1R)-1-(hexadecanoyloxymethyl)-2-[hydroxy-[(2S,3R,5S,6S)-2,3,4,5,6-pentahydroxycyclohexoxy]phosphoryl]oxy-ethyl] ester

> <PUBCHEM_IUPAC_INCHI>
InChI=1S/C43H79O13P/c1-3-5-7-9-11-13-15-17-18-20-22-24-26-28-30-32-37(45)55-35(34-54-57(51,52)56-43-41(49)39(47)38(46)40(48)42(43)50)33-53-36(44)31-29-27-25-23-21-19-16-14-12-10-8-6-4-2/h13,15,18,20,35,38-43,46-50H,3-12,14,16-17,19,21-34H2,1-2H3,(H,51,52)/b15-13-,20-18-/t35-,38?,39-,40+,41+,42+,43?/m1/s1

> <PUBCHEM_IUPAC_INCHIKEY>
MJDVUNHVIDZLFE-LUVMZQEZSA-N

> <PUBCHEM_XLOGP3_AA>
9.7

> <PUBCHEM_EXACT_MASS>
834.52583

> <PUBCHEM_MOLECULAR_FORMULA>
C43H79O13P

> <PUBCHEM_MOLECULAR_WEIGHT>
835.1

> <PUBCHEM_OPENEYE_CAN_SMILES>
CCCCCCCCCCCCCCCC(=O)OCC(COP(=O)(O)OC1C(C(C(C(C1O)O)O)O)O)OC(=O)CCCCCCC=CCC=CCCCCCC

> <PUBCHEM_OPENEYE_ISO_SMILES>
CCCCCCCCCCCCCCCC(=O)OC[C@H](COP(=O)(O)OC1[C@H]([C@H](C([C@H]([C@@H]1O)O)O)O)O)OC(=O)CCCCCC/C=C\C/C=C\CCCCCC

> <PUBCHEM_CACTVS_TPSA>
210

> <PUBCHEM_MONOISOTOPIC_WEIGHT>
834.52583

> <PUBCHEM_TOTAL_CHARGE>
0

> <PUBCHEM_HEAVY_ATOM_COUNT>
57

> <PUBCHEM_ATOM_DEF_STEREO_COUNT>
5

> <PUBCHEM_ATOM_UDEF_STEREO_COUNT>
0

> <PUBCHEM_BOND_DEF_STEREO_COUNT>
2

> <PUBCHEM_BOND_UDEF_STEREO_COUNT>
0

> <PUBCHEM_ISOTOPIC_ATOM_COUNT>
0

> <PUBCHEM_COMPONENT_COUNT>
1

> <PUBCHEM_CACTVS_TAUTO_COUNT>
-1

> <PUBCHEM_COORDINATE_TYPE>
1
5
255

> <PUBCHEM_BONDANNOTATIONS>
22  11  6
16  3  5
17  4  6
18  5  6
19  6  6

$$$$
6440982
  -OEChem-04052116402D

 46 48  0     1  0  0  0  0  0999 V2000
    7.6726    2.7302    0.0000 O   0  0  0  0  0  0  0  0  0  0  0  0
    5.1346    3.2346    0.0000 O   0  0  0  0  0  0  0  0  0  0  0  0
    6.4164    4.9924    0.0000 O   0  0  0  0  0  0  0  0  0  0  0  0
    9.3972    3.9082    0.0000 O   0  0  0  0  0  0  0  0  0  0  0  0
    2.0000   -4.8324    0.0000 O   0  0  0  0  0  0  0  0  0  0  0  0
    6.4103    1.4723    0.0000 N   0  0  0  0  0  0  0  0  0  0  0  0
    6.4103   -0.1372    0.0000 N   0  0  0  0  0  0  0  0  0  0  0  0
    4.5981    1.6676    0.0000 N   0  0  0  0  0  0  0  0  0  0  0  0
    4.5981   -1.3324    0.0000 N   0  0  0  0  0  0  0  0  0  0  0  0
    3.7320    0.1675    0.0000 N   0  0  0  0  0  0  0  0  0  0  0  0
    6.1346    3.2328    0.0000 C   0  0  1  0  0  0  0  0  0  0  0  0
    6.7210    2.4228    0.0000 C   0  0  1  0  0  0  0  0  0  0  0  0
    6.7238    4.0408    0.0000 C   0  0  1  0  0  0  0  0  0  0  0  0
    7.6743    3.7302    0.0000 C   0  0  1  0  0  0  0  0  0  0  0  0
    8.4843    4.3166    0.0000 C   0  0  0  0  0  0  0  0  0  0  0  0
    5.4641    1.1676    0.0000 C   0  0  0  0  0  0  0  0  0  0  0  0
    6.9939    0.6675    0.0000 C   0  0  0  0  0  0  0  0  0  0  0  0
    5.4641    0.1675    0.0000 C   0  0  0  0  0  0  0  0  0  0  0  0
    4.5981   -0.3325    0.0000 C   0  0  0  0  0  0  0  0  0  0  0  0
    3.7320    1.1676    0.0000 C   0  0  0  0  0  0  0  0  0  0  0  0
    3.7320   -1.8324    0.0000 C   0  0  0  0  0  0  0  0  0  0  0  0
    3.7320   -2.8324    0.0000 C   0  0  0  0  0  0  0  0  0  0  0  0
    2.8660   -3.3324    0.0000 C   0  0  0  0  0  0  0  0  0  0  0  0
    2.8660   -4.3324    0.0000 C   0  0  0  0  0  0  0  0  0  0  0  0
    2.0000   -2.8324    0.0000 C   0  0  0  0  0  0  0  0  0  0  0  0
    5.8541    3.7857    0.0000 H   0  0  0  0  0  0  0  0  0  0  0  0
    6.1085    2.3269    0.0000 H   0  0  0  0  0  0  0  0  0  0  0  0
    6.1116    4.1389    0.0000 H   0  0  0  0  0  0  0  0  0  0  0  0
    8.2262    3.4477    0.0000 H   0  0  0  0  0  0  0  0  0  0  0  0
    8.8319    4.8300    0.0000 H   0  0  0  0  0  0  0  0  0  0  0  0
    8.0391    4.7480    0.0000 H   0  0  0  0  0  0  0  0  0  0  0  0
    4.8255    3.7720    0.0000 H   0  0  0  0  0  0  0  0  0  0  0  0
    6.8321    5.4524    0.0000 H   0  0  0  0  0  0  0  0  0  0  0  0
    7.6139    0.6675    0.0000 H   0  0  0  0  0  0  0  0  0  0  0  0
    9.8994    4.2718    0.0000 H   0  0  0  0  0  0  0  0  0  0  0  0
    3.1951    1.4776    0.0000 H   0  0  0  0  0  0  0  0  0  0  0  0
    5.1350   -1.6424    0.0000 H   0  0  0  0  0  0  0  0  0  0  0  0
    3.5200   -1.2498    0.0000 H   0  0  0  0  0  0  0  0  0  0  0  0
    3.1215   -1.9401    0.0000 H   0  0  0  0  0  0  0  0  0  0  0  0
    4.2690   -3.1425    0.0000 H   0  0  0  0  0  0  0  0  0  0  0  0
    3.0781   -4.9151    0.0000 H   0  0  0  0  0  0  0  0  0  0  0  0
    3.4766   -4.2248    0.0000 H   0  0  0  0  0  0  0  0  0  0  0  0
    2.3100   -2.2955    0.0000 H   0  0  0  0  0  0  0  0  0  0  0  0
    1.4631   -2.5224    0.0000 H   0  0  0  0  0  0  0  0  0  0  0  0
    1.6900   -3.3694    0.0000 H   0  0  0  0  0  0  0  0  0  0  0  0
    2.0000   -5.4524    0.0000 H   0  0  0  0  0  0  0  0  0  0  0  0
  1 12  1  0  0  0  0
  1 14  1  0  0  0  0
 11  2  1  6  0  0  0
  2 32  1  0  0  0  0
 13  3  1  6  0  0  0
  3 33  1  0  0  0  0
  4 15  1  0  0  0  0
  4 35  1  0  0  0  0
  5 24  1  0  0  0  0
  5 46  1  0  0  0  0
 12  6  1  1  0  0  0
  6 16  1  0  0  0  0
  6 17  1  0  0  0  0
  7 17  2  0  0  0  0
  7 18  1  0  0  0  0
  8 16  2  0  0  0  0
  8 20  1  0  0  0  0
  9 19  1  0  0  0  0
  9 21  1  0  0  0  0
  9 37  1  0  0  0  0
 10 19  1  0  0  0  0
 10 20  2  0  0  0  0
 11 12  1  0  0  0  0
 11 13  1  0  0  0  0
 11 26  1  0  0  0  0
 12 27  1  0  0  0  0
 13 14  1  0  0  0  0
 13 28  1  0  0  0  0
 14 15  1  1  0  0  0
 14 29  1  0  0  0  0
 15 30  1  0  0  0  0
 15 31  1  0  0  0  0
 16 18  1  0  0  0  0
 17 34  1  0  0  0  0
 18 19  2  0  0  0  0
 20 36  1  0  0  0  0
 21 22  1  0  0  0  0
 21 38  1  0  0  0  0
 21 39  1  0  0  0  0
 22 23  2  0  0  0  0
 22 40  1  0  0  0  0
 23 24  1  0  0  0  0
 23 25  1  0  0  0  0
 24 41  1  0  0  0  0
 24 42  1  0  0  0  0
 25 43  1  0  0  0  0
 25 44  1  0  0  0  0
 25 45  1  0  0  0  0
M  END
> <PUBCHEM_COMPOUND_CID>
6440982

> <PUBCHEM_COMPOUND_CANONICALIZED>
1

> <PUBCHEM_CACTVS_COMPLEXITY>
481

> <PUBCHEM_CACTVS_HBOND_ACCEPTOR>
9

> <PUBCHEM_CACTVS_HBOND_DONOR>
5

> <PUBCHEM_CACTVS_ROTATABLE_BOND>
6

> <PUBCHEM_CACTVS_SUBSKEYS>
AAADceBzuAAAAAAAAAAAAAAAAAAAAWJAAAAsAAAAAAAAAFgB+AAAHgAQCAAADBzhlwYH8L/MFgCgAyZjZACAgC0REKABWKAoVBCDXAJAyUAeVAgPEALTECDwMAIAAAAAAAAAAAAAAAAAAAAAAAAAAAAAAA==

> <PUBCHEM_IUPAC_OPENEYE_NAME>
(2R,3S,4R,5R)-2-(hydroxymethyl)-5-[6-[[(E)-4-hydroxy-3-methyl-but-2-enyl]amino]purin-9-yl]tetrahydrofuran-3,4-diol

> <PUBCHEM_IUPAC_CAS_NAME>
(2R,3S,4R,5R)-2-(hydroxymethyl)-5-[6-[[(E)-4-hydroxy-3-methylbut-2-enyl]amino]-9-purinyl]oxolane-3,4-diol

> <PUBCHEM_IUPAC_NAME_MARKUP>
(2<I>R</I>,3<I>S</I>,4<I>R</I>,5<I>R</I>)-2-(hydroxymethyl)-5-[6-[[(<I>E</I>)-4-hydroxy-3-methylbut-2-enyl]amino]purin-9-yl]oxolane-3,4-diol

> <PUBCHEM_IUPAC_NAME>
(2R,3S,4R,5R)-2-(hydroxymethyl)-5-[6-[[(E)-4-hydroxy-3-methylbut-2-enyl]amino]purin-9-yl]oxolane-3,4-diol

> <PUBCHEM_IUPAC_SYSTEMATIC_NAME>
(2R,3S,4R,5R)-2-(hydroxymethyl)-5-[6-[[(E)-3-methyl-4-oxidanyl-but-2-enyl]amino]purin-9-yl]oxolane-3,4-diol

> <PUBCHEM_IUPAC_TRADITIONAL_NAME>
(2R,3R,4S,5R)-2-[6-[[(E)-4-hydroxy-3-methyl-but-2-enyl]amino]purin-9-yl]-5-methylol-tetrahydrofuran-3,4-diol

> <PUBCHEM_IUPAC_INCHI>
InChI=1S/C15H21N5O5/c1-8(4-21)2-3-16-13-10-14(18-6-17-13)20(7-19-10)15-12(24)11(23)9(5-22)25-15/h2,6-7,9,11-12,15,21-24H,3-5H2,1H3,(H,16,17,18)/b8-2+/t9-,11-,12-,15-/m1/s1

> <PUBCHEM_IUPAC_INCHIKEY>
GOSWTRUMMSCNCW-HNNGNKQASA-N

> <PUBCHEM_XLOGP3>
-0.1

> <PUBCHEM_EXACT_MASS>
351.154269

> <PUBCHEM_MOLECULAR_FORMULA>
C15H21N5O5

> <PUBCHEM_MOLECULAR_WEIGHT>
351.36

> <PUBCHEM_OPENEYE_CAN_SMILES>
CC(=CCNC1=C2C(=NC=N1)N(C=N2)C3C(C(C(O3)CO)O)O)CO

> <PUBCHEM_OPENEYE_ISO_SMILES>
C/C(=C\CNC1=C2C(=NC=N1)N(C=N2)[C@H]3[C@@H]([C@@H]([C@H](O3)CO)O)O)/CO

> <PUBCHEM_CACTVS_TPSA>
146

> <PUBCHEM_MONOISOTOPIC_WEIGHT>
351.154269

> <PUBCHEM_TOTAL_CHARGE>
0

> <PUBCHEM_HEAVY_ATOM_COUNT>
25

> <PUBCHEM_ATOM_DEF_STEREO_COUNT>
4

> <PUBCHEM_ATOM_UDEF_STEREO_COUNT>
0

> <PUBCHEM_BOND_DEF_STEREO_COUNT>
1

> <PUBCHEM_BOND_UDEF_STEREO_COUNT>
0

> <PUBCHEM_ISOTOPIC_ATOM_COUNT>
0

> <PUBCHEM_COMPONENT_COUNT>
1

> <PUBCHEM_CACTVS_TAUTO_COUNT>
-1

> <PUBCHEM_COORDINATE_TYPE>
1
5
255

> <PUBCHEM_BONDANNOTATIONS>
10  19  8
10  20  8
14  15  5
16  18  8
18  19  8
11  2  6
13  3  6
12  6  5
6  16  8
6  17  8
7  17  8
7  18  8
8  16  8
8  20  8

$$$$
6419957
  -OEChem-04052116402D

179180  0     1  0  0  0  0  0999 V2000
   15.4424    8.3301    0.0000 S   0  0  0  0  0  0  0  0  0  0  0  0
   15.4424    4.5981    0.0000 S   0  0  0  0  0  0  0  0  0  0  0  0
   15.4424    0.8660    0.0000 S   0  0  0  0  0  0  0  0  0  0  0  0
   15.7466   16.0949    0.0000 O   0  0  0  0  0  0  0  0  0  0  0  0
    3.8520   10.2196    0.0000 O   0  0  0  0  0  0  0  0  0  0  0  0
   14.4866   17.3550    0.0000 O   0  0  0  0  0  0  0  0  0  0  0  0
    5.6316   10.3129    0.0000 O   0  0  0  0  0  0  0  0  0  0  0  0
   13.9866   14.8162    0.0000 O   0  0  0  0  0  0  0  0  0  0  0  0
    4.0794   12.3833    0.0000 O   0  0  0  0  0  0  0  0  0  0  0  0
   12.2545   14.8162    0.0000 O   0  0  0  0  0  0  0  0  0  0  0  0
    5.2384   13.6704    0.0000 O   0  0  0  0  0  0  0  0  0  0  0  0
   12.5898   15.5949    0.0000 O   0  0  0  0  0  0  0  0  0  0  0  0
    5.5928   12.9002    0.0000 O   0  0  0  0  0  0  0  0  0  0  0  0
   17.6487   15.4769    0.0000 O   0  0  0  0  0  0  0  0  0  0  0  0
    5.5841    9.2196    0.0000 O   0  0  0  0  0  0  0  0  0  0  0  0
   17.1642   19.4016    0.0000 O   0  0  0  0  0  0  0  0  0  0  0  0
    2.1200    7.2196    0.0000 O   0  0  0  0  0  0  0  0  0  0  0  0
   19.1350   16.8152    0.0000 O   0  0  0  0  0  0  0  0  0  0  0  0
    5.5841    7.2196    0.0000 O   0  0  0  0  0  0  0  0  0  0  0  0
   12.2545   11.8162    0.0000 O   0  0  0  0  0  0  0  0  0  0  0  0
    3.0090   15.6778    0.0000 O   0  0  0  0  0  0  0  0  0  0  0  0
   10.5225   12.8162    0.0000 O   0  0  0  0  0  0  0  0  0  0  0  0
    4.9111   16.2959    0.0000 O   0  0  0  0  0  0  0  0  0  0  0  0
   11.4833   16.0438    0.0000 O   0  0  0  0  0  0  0  0  0  0  0  0
    6.6668   13.4221    0.0000 O   0  0  0  0  0  0  0  0  0  0  0  0
   10.5225   15.8162    0.0000 O   0  0  0  0  0  0  0  0  0  0  0  0
    7.1405   14.2885    0.0000 O   0  0  0  0  0  0  0  0  0  0  0  0
   16.3084    8.8301    0.0000 O   0  0  0  0  0  0  0  0  0  0  0  0
   14.5764    7.8301    0.0000 O   0  0  0  0  0  0  0  0  0  0  0  0
   16.3084    5.0981    0.0000 O   0  0  0  0  0  0  0  0  0  0  0  0
   14.5764    4.0981    0.0000 O   0  0  0  0  0  0  0  0  0  0  0  0
   16.3084    1.3660    0.0000 O   0  0  0  0  0  0  0  0  0  0  0  0
   14.5764    0.3660    0.0000 O   0  0  0  0  0  0  0  0  0  0  0  0
   14.9424    9.1962    0.0000 O   0  0  0  0  0  0  0  0  0  0  0  0
   15.9424    7.4641    0.0000 O   0  0  0  0  0  0  0  0  0  0  0  0
   14.9424    5.4641    0.0000 O   0  0  0  0  0  0  0  0  0  0  0  0
   15.9424    3.7320    0.0000 O   0  0  0  0  0  0  0  0  0  0  0  0
   14.9424    1.7320    0.0000 O   0  0  0  0  0  0  0  0  0  0  0  0
   15.9424    0.0000    0.0000 O   0  0  0  0  0  0  0  0  0  0  0  0
   15.3308   18.0512    0.0000 N   0  0  0  0  0  0  0  0  0  0  0  0
    2.1200    9.2196    0.0000 N   0  0  0  0  0  0  0  0  0  0  0  0
   18.7192   18.7714    0.0000 N   0  0  0  0  0  0  0  0  0  0  0  0
    3.8520    6.2196    0.0000 N   0  0  0  0  0  0  0  0  0  0  0  0
   13.9866   12.8162    0.0000 N   0  0  0  0  0  0  0  0  0  0  0  0
    2.5932   13.7215    0.0000 N   0  0  0  0  0  0  0  0  0  0  0  0
   14.1718   19.3384    0.0000 N   0  0  0  0  0  0  0  0  0  0  0  0
   15.5924   19.9123    0.0000 N   0  0  0  0  0  0  0  0  0  0  0  0
    0.6200   10.0857    0.0000 N   0  0  0  0  0  0  0  0  0  0  0  0
    0.6200    8.3536    0.0000 N   0  0  0  0  0  0  0  0  0  0  0  0
   20.0064   19.9304    0.0000 N   0  0  0  0  0  0  0  0  0  0  0  0
   20.3665   18.2362    0.0000 N   0  0  0  0  0  0  0  0  0  0  0  0
    3.8520    4.4876    0.0000 N   0  0  0  0  0  0  0  0  0  0  0  0
    5.3520    5.3536    0.0000 N   0  0  0  0  0  0  0  0  0  0  0  0
   16.4898   16.7641    0.0000 C   0  0  1  0  0  0  0  0  0  0  0  0
    3.8520    9.2196    0.0000 C   0  0  1  0  0  0  0  0  0  0  0  0
   13.9866   15.8162    0.0000 C   0  0  1  0  0  0  0  0  0  0  0  0
    4.8226   11.7142    0.0000 C   0  0  1  0  0  0  0  0  0  0  0  0
   14.7956   16.4039    0.0000 C   0  0  2  0  0  0  0  0  0  0  0  0
    4.7181   10.7196    0.0000 C   0  0  2  0  0  0  0  0  0  0  0  0
   13.1775   16.4039    0.0000 C   0  0  1  0  0  0  0  0  0  0  0  0
   16.2819   17.7422    0.0000 C   0  0  1  0  0  0  0  0  0  0  0  0
    5.8008   11.9221    0.0000 C   0  0  1  0  0  0  0  0  0  0  0  0
    2.9860    8.7196    0.0000 C   0  0  1  0  0  0  0  0  0  0  0  0
   17.4408   16.4550    0.0000 C   0  0  2  0  0  0  0  0  0  0  0  0
    4.7181    8.7196    0.0000 C   0  0  2  0  0  0  0  0  0  0  0  0
   17.0250   18.4113    0.0000 C   0  0  2  0  0  0  0  0  0  0  0  0
    2.9860    7.7196    0.0000 C   0  0  2  0  0  0  0  0  0  0  0  0
   18.1840   17.1242    0.0000 C   0  0  1  0  0  0  0  0  0  0  0  0
    4.7181    7.7196    0.0000 C   0  0  1  0  0  0  0  0  0  0  0  0
   17.9761   18.1023    0.0000 C   0  0  1  0  0  0  0  0  0  0  0  0
    3.8520    7.2196    0.0000 C   0  0  1  0  0  0  0  0  0  0  0  0
   13.4866   17.3550    0.0000 C   0  0  2  0  0  0  0  0  0  0  0  0
    6.3008   11.0560    0.0000 C   0  0  2  0  0  0  0  0  0  0  0  0
   13.1205   14.3162    0.0000 C   0  0  2  0  0  0  0  0  0  0  0  0
    4.2874   13.3614    0.0000 C   0  0  2  0  0  0  0  0  0  0  0  0
   13.1205   13.3162    0.0000 C   0  0  2  0  0  0  0  0  0  0  0  0
    3.5442   14.0306    0.0000 C   0  0  2  0  0  0  0  0  0  0  0  0
   12.2545   12.8162    0.0000 C   0  0  1  0  0  0  0  0  0  0  0  0
    3.7521   15.0087    0.0000 C   0  0  1  0  0  0  0  0  0  0  0  0
   11.3885   13.3162    0.0000 C   0  0  2  0  0  0  0  0  0  0  0  0
    4.7032   15.3177    0.0000 C   0  0  2  0  0  0  0  0  0  0  0  0
   12.8988   18.1640    0.0000 C   0  0  0  0  0  0  0  0  0  0  0  0
    7.2953   10.9515    0.0000 C   0  0  0  0  0  0  0  0  0  0  0  0
   11.3885   14.3162    0.0000 C   0  0  2  0  0  0  0  0  0  0  0  0
    5.4463   14.6486    0.0000 C   0  0  2  0  0  0  0  0  0  0  0  0
   12.2265   16.7130    0.0000 C   0  0  0  0  0  0  0  0  0  0  0  0
    6.6668   12.4221    0.0000 C   0  0  0  0  0  0  0  0  0  0  0  0
   10.5225   14.8162    0.0000 C   0  0  0  0  0  0  0  0  0  0  0  0
    6.3974   14.9576    0.0000 C   0  0  0  0  0  0  0  0  0  0  0  0
   15.1229   19.0294    0.0000 C   0  0  0  0  0  0  0  0  0  0  0  0
    1.1200    9.2197    0.0000 C   0  0  0  0  0  0  0  0  0  0  0  0
   19.6974   18.9794    0.0000 C   0  0  0  0  0  0  0  0  0  0  0  0
    4.3520    5.3536    0.0000 C   0  0  0  0  0  0  0  0  0  0  0  0
   13.9866   11.8162    0.0000 C   0  0  0  0  0  0  0  0  0  0  0  0
    1.8500   14.3907    0.0000 C   0  0  0  0  0  0  0  0  0  0  0  0
   15.9001   16.9556    0.0000 H   0  0  0  0  0  0  0  0  0  0  0  0
    4.3890    9.5296    0.0000 H   0  0  0  0  0  0  0  0  0  0  0  0
   14.5390   15.5347    0.0000 H   0  0  0  0  0  0  0  0  0  0  0  0
    4.2438   11.4920    0.0000 H   0  0  0  0  0  0  0  0  0  0  0  0
   14.8926   15.7916    0.0000 H   0  0  0  0  0  0  0  0  0  0  0  0
    4.1981   11.0573    0.0000 H   0  0  0  0  0  0  0  0  0  0  0  0
   16.1530   18.3487    0.0000 H   0  0  0  0  0  0  0  0  0  0  0  0
    2.9860    9.3396    0.0000 H   0  0  0  0  0  0  0  0  0  0  0  0
   16.9801   16.0402    0.0000 H   0  0  0  0  0  0  0  0  0  0  0  0
    5.2550    8.4096    0.0000 H   0  0  0  0  0  0  0  0  0  0  0  0
   16.4776   18.7024    0.0000 H   0  0  0  0  0  0  0  0  0  0  0  0
    2.9860    7.0996    0.0000 H   0  0  0  0  0  0  0  0  0  0  0  0
   18.6447   17.5390    0.0000 H   0  0  0  0  0  0  0  0  0  0  0  0
    4.7181    7.0996    0.0000 H   0  0  0  0  0  0  0  0  0  0  0  0
   17.8472   18.7088    0.0000 H   0  0  0  0  0  0  0  0  0  0  0  0
    3.3151    6.9096    0.0000 H   0  0  0  0  0  0  0  0  0  0  0  0
   13.7680   17.9074    0.0000 H   0  0  0  0  0  0  0  0  0  0  0  0
    6.5229   10.4772    0.0000 H   0  0  0  0  0  0  0  0  0  0  0  0
   13.1205   14.9362    0.0000 H   0  0  0  0  0  0  0  0  0  0  0  0
    3.6977   13.1698    0.0000 H   0  0  0  0  0  0  0  0  0  0  0  0
   13.6575   13.6262    0.0000 H   0  0  0  0  0  0  0  0  0  0  0  0
    3.0835   14.4454    0.0000 H   0  0  0  0  0  0  0  0  0  0  0  0
   12.7914   12.5062    0.0000 H   0  0  0  0  0  0  0  0  0  0  0  0
    3.8810   15.6152    0.0000 H   0  0  0  0  0  0  0  0  0  0  0  0
   10.8515   13.6262    0.0000 H   0  0  0  0  0  0  0  0  0  0  0  0
    4.2424   15.7326    0.0000 H   0  0  0  0  0  0  0  0  0  0  0  0
   13.4004   18.5284    0.0000 H   0  0  0  0  0  0  0  0  0  0  0  0
   12.5343   18.6656    0.0000 H   0  0  0  0  0  0  0  0  0  0  0  0
   12.3972   17.7996    0.0000 H   0  0  0  0  0  0  0  0  0  0  0  0
    7.2305   10.3349    0.0000 H   0  0  0  0  0  0  0  0  0  0  0  0
    7.9119   10.8867    0.0000 H   0  0  0  0  0  0  0  0  0  0  0  0
    7.3601   11.5681    0.0000 H   0  0  0  0  0  0  0  0  0  0  0  0
   11.3885   14.9362    0.0000 H   0  0  0  0  0  0  0  0  0  0  0  0
    5.9071   14.2337    0.0000 H   0  0  0  0  0  0  0  0  0  0  0  0
   12.0976   17.3194    0.0000 H   0  0  0  0  0  0  0  0  0  0  0  0
    7.2037   12.1121    0.0000 H   0  0  0  0  0  0  0  0  0  0  0  0
   12.8419   15.0285    0.0000 H   0  0  0  0  0  0  0  0  0  0  0  0
    5.0032   13.0918    0.0000 H   0  0  0  0  0  0  0  0  0  0  0  0
   18.2384   15.2853    0.0000 H   0  0  0  0  0  0  0  0  0  0  0  0
    6.1210    8.9096    0.0000 H   0  0  0  0  0  0  0  0  0  0  0  0
   17.7390   19.6339    0.0000 H   0  0  0  0  0  0  0  0  0  0  0  0
    2.1200    6.5996    0.0000 H   0  0  0  0  0  0  0  0  0  0  0  0
   19.2639   16.2087    0.0000 H   0  0  0  0  0  0  0  0  0  0  0  0
    6.1210    7.5296    0.0000 H   0  0  0  0  0  0  0  0  0  0  0  0
   14.5235   13.1262    0.0000 H   0  0  0  0  0  0  0  0  0  0  0  0
    2.4643   13.1151    0.0000 H   0  0  0  0  0  0  0  0  0  0  0  0
    9.9119   14.9238    0.0000 H   0  0  0  0  0  0  0  0  0  0  0  0
   10.3104   14.2335    0.0000 H   0  0  0  0  0  0  0  0  0  0  0  0
    6.8860   15.3393    0.0000 H   0  0  0  0  0  0  0  0  0  0  0  0
    6.1063   15.5050    0.0000 H   0  0  0  0  0  0  0  0  0  0  0  0
   11.7176   11.5062    0.0000 H   0  0  0  0  0  0  0  0  0  0  0  0
    3.1379   16.2843    0.0000 H   0  0  0  0  0  0  0  0  0  0  0  0
    9.9855   13.1262    0.0000 H   0  0  0  0  0  0  0  0  0  0  0  0
    5.5008   16.4875    0.0000 H   0  0  0  0  0  0  0  0  0  0  0  0
   13.3666   11.8162    0.0000 H   0  0  0  0  0  0  0  0  0  0  0  0
   13.9866   11.1962    0.0000 H   0  0  0  0  0  0  0  0  0  0  0  0
   14.6066   11.8162    0.0000 H   0  0  0  0  0  0  0  0  0  0  0  0
    2.2649   14.8514    0.0000 H   0  0  0  0  0  0  0  0  0  0  0  0
    1.3893   14.8055    0.0000 H   0  0  0  0  0  0  0  0  0  0  0  0
    1.4352   13.9299    0.0000 H   0  0  0  0  0  0  0  0  0  0  0  0
    9.9855   16.1262    0.0000 H   0  0  0  0  0  0  0  0  0  0  0  0
    7.7302   14.4801    0.0000 H   0  0  0  0  0  0  0  0  0  0  0  0
   14.0429   19.9448    0.0000 H   0  0  0  0  0  0  0  0  0  0  0  0
   13.7111   18.9235    0.0000 H   0  0  0  0  0  0  0  0  0  0  0  0
   15.2638   20.4381    0.0000 H   0  0  0  0  0  0  0  0  0  0  0  0
   16.2120   19.9340    0.0000 H   0  0  0  0  0  0  0  0  0  0  0  0
    0.0000   10.0857    0.0000 H   0  0  0  0  0  0  0  0  0  0  0  0
    0.9300   10.6226    0.0000 H   0  0  0  0  0  0  0  0  0  0  0  0
    0.0000    8.3536    0.0000 H   0  0  0  0  0  0  0  0  0  0  0  0
    0.9301    7.8166    0.0000 H   0  0  0  0  0  0  0  0  0  0  0  0
   20.6128   20.0593    0.0000 H   0  0  0  0  0  0  0  0  0  0  0  0
   19.5915   20.3912    0.0000 H   0  0  0  0  0  0  0  0  0  0  0  0
   20.9729   18.3651    0.0000 H   0  0  0  0  0  0  0  0  0  0  0  0
   20.1749   17.6466    0.0000 H   0  0  0  0  0  0  0  0  0  0  0  0
    3.2320    4.4876    0.0000 H   0  0  0  0  0  0  0  0  0  0  0  0
    4.1620    3.9506    0.0000 H   0  0  0  0  0  0  0  0  0  0  0  0
    5.6620    4.8167    0.0000 H   0  0  0  0  0  0  0  0  0  0  0  0
    5.6620    5.8905    0.0000 H   0  0  0  0  0  0  0  0  0  0  0  0
   16.8454    8.5201    0.0000 H   0  0  0  0  0  0  0  0  0  0  0  0
   14.0394    8.1401    0.0000 H   0  0  0  0  0  0  0  0  0  0  0  0
   16.8454    4.7881    0.0000 H   0  0  0  0  0  0  0  0  0  0  0  0
   14.0394    4.4081    0.0000 H   0  0  0  0  0  0  0  0  0  0  0  0
   16.8454    1.0560    0.0000 H   0  0  0  0  0  0  0  0  0  0  0  0
   14.0394    0.6760    0.0000 H   0  0  0  0  0  0  0  0  0  0  0  0
  1 28  1  0  0  0  0
  1 29  1  0  0  0  0
  1 34  2  0  0  0  0
  1 35  2  0  0  0  0
  2 30  1  0  0  0  0
  2 31  1  0  0  0  0
  2 36  2  0  0  0  0
  2 37  2  0  0  0  0
  3 32  1  0  0  0  0
  3 33  1  0  0  0  0
  3 38  2  0  0  0  0
  3 39  2  0  0  0  0
 54  4  1  1  0  0  0
 58  4  1  1  0  0  0
 55  5  1  6  0  0  0
 59  5  1  1  0  0  0
  6 58  1  0  0  0  0
  6 72  1  0  0  0  0
  7 59  1  0  0  0  0
  7 73  1  0  0  0  0
 56  8  1  6  0  0  0
 74  8  1  1  0  0  0
 57  9  1  6  0  0  0
 75  9  1  1  0  0  0
 10 74  1  0  0  0  0
 10 84  1  0  0  0  0
 11 75  1  0  0  0  0
 11 85  1  0  0  0  0
 60 12  1  6  0  0  0
 12132  1  0  0  0  0
 62 13  1  6  0  0  0
 13133  1  0  0  0  0
 64 14  1  6  0  0  0
 14134  1  0  0  0  0
 65 15  1  1  0  0  0
 15135  1  0  0  0  0
 66 16  1  1  0  0  0
 16136  1  0  0  0  0
 67 17  1  6  0  0  0
 17137  1  0  0  0  0
 68 18  1  1  0  0  0
 18138  1  0  0  0  0
 69 19  1  6  0  0  0
 19139  1  0  0  0  0
 78 20  1  6  0  0  0
 20146  1  0  0  0  0
 79 21  1  6  0  0  0
 21147  1  0  0  0  0
 80 22  1  1  0  0  0
 22148  1  0  0  0  0
 81 23  1  1  0  0  0
 23149  1  0  0  0  0
 24 86  2  0  0  0  0
 25 87  2  0  0  0  0
 26 88  1  0  0  0  0
 26156  1  0  0  0  0
 27 89  1  0  0  0  0
 27157  1  0  0  0  0
 28174  1  0  0  0  0
 29175  1  0  0  0  0
 30176  1  0  0  0  0
 31177  1  0  0  0  0
 32178  1  0  0  0  0
 33179  1  0  0  0  0
 61 40  1  6  0  0  0
 40 90  2  0  0  0  0
 63 41  1  1  0  0  0
 41 91  2  0  0  0  0
 70 42  1  6  0  0  0
 42 92  2  0  0  0  0
 71 43  1  1  0  0  0
 43 93  2  0  0  0  0
 76 44  1  1  0  0  0
 44 94  1  0  0  0  0
 44140  1  0  0  0  0
 77 45  1  1  0  0  0
 45 95  1  0  0  0  0
 45141  1  0  0  0  0
 46 90  1  0  0  0  0
 46158  1  0  0  0  0
 46159  1  0  0  0  0
 47 90  1  0  0  0  0
 47160  1  0  0  0  0
 47161  1  0  0  0  0
 48 91  1  0  0  0  0
 48162  1  0  0  0  0
 48163  1  0  0  0  0
 49 91  1  0  0  0  0
 49164  1  0  0  0  0
 49165  1  0  0  0  0
 50 92  1  0  0  0  0
 50166  1  0  0  0  0
 50167  1  0  0  0  0
 51 92  1  0  0  0  0
 51168  1  0  0  0  0
 51169  1  0  0  0  0
 52 93  1  0  0  0  0
 52170  1  0  0  0  0
 52171  1  0  0  0  0
 53 93  1  0  0  0  0
 53172  1  0  0  0  0
 53173  1  0  0  0  0
 54 61  1  0  0  0  0
 54 64  1  0  0  0  0
 54 96  1  0  0  0  0
 55 63  1  0  0  0  0
 55 65  1  0  0  0  0
 55 97  1  0  0  0  0
 56 58  1  0  0  0  0
 56 60  1  0  0  0  0
 56 98  1  0  0  0  0
 57 59  1  0  0  0  0
 57 62  1  0  0  0  0
 57 99  1  0  0  0  0
 58100  1  0  0  0  0
 59101  1  0  0  0  0
 60 72  1  0  0  0  0
 60 86  1  0  0  0  0
 61 66  1  0  0  0  0
 61102  1  0  0  0  0
 62 73  1  0  0  0  0
 62 87  1  0  0  0  0
 63 67  1  0  0  0  0
 63103  1  0  0  0  0
 64 68  1  0  0  0  0
 64104  1  0  0  0  0
 65 69  1  0  0  0  0
 65105  1  0  0  0  0
 66 70  1  0  0  0  0
 66106  1  0  0  0  0
 67 71  1  0  0  0  0
 67107  1  0  0  0  0
 68 70  1  0  0  0  0
 68108  1  0  0  0  0
 69 71  1  0  0  0  0
 69109  1  0  0  0  0
 70110  1  0  0  0  0
 71111  1  0  0  0  0
 72 82  1  6  0  0  0
 72112  1  0  0  0  0
 73 83  1  6  0  0  0
 73113  1  0  0  0  0
 74 76  1  0  0  0  0
 74114  1  0  0  0  0
 75 77  1  0  0  0  0
 75115  1  0  0  0  0
 76 78  1  0  0  0  0
 76116  1  0  0  0  0
 77 79  1  0  0  0  0
 77117  1  0  0  0  0
 78 80  1  0  0  0  0
 78118  1  0  0  0  0
 79 81  1  0  0  0  0
 79119  1  0  0  0  0
 80 84  1  0  0  0  0
 80120  1  0  0  0  0
 81 85  1  0  0  0  0
 81121  1  0  0  0  0
 82122  1  0  0  0  0
 82123  1  0  0  0  0
 82124  1  0  0  0  0
 83125  1  0  0  0  0
 83126  1  0  0  0  0
 83127  1  0  0  0  0
 84 88  1  6  0  0  0
 84128  1  0  0  0  0
 85 89  1  6  0  0  0
 85129  1  0  0  0  0
 86130  1  0  0  0  0
 87131  1  0  0  0  0
 88142  1  0  0  0  0
 88143  1  0  0  0  0
 89144  1  0  0  0  0
 89145  1  0  0  0  0
 94150  1  0  0  0  0
 94151  1  0  0  0  0
 94152  1  0  0  0  0
 95153  1  0  0  0  0
 95154  1  0  0  0  0
 95155  1  0  0  0  0
M  END
> <PUBCHEM_COMPOUND_CID>
6419957

> <PUBCHEM_COMPOUND_CANONICALIZED>
1

> <PUBCHEM_CACTVS_COMPLEXITY>
1020

> <PUBCHEM_CACTVS_HBOND_ACCEPTOR>
42

> <PUBCHEM_CACTVS_HBOND_DONOR>
30

> <PUBCHEM_CACTVS_ROTATABLE_BOND>
18

> <PUBCHEM_CACTVS_SUBSKEYS>
AAADcfB//gBgAAAAAAAAAAAAAAAAASJAAAA0aIEAAAAAAAAAAAAAHgAQCAAADHzxgAcDCALABoAoAAgQpDIAAAEAAAAAAIFIAAATEBYAwAAnQAAHMAAXAAHycA8KAAAAAAAAAAACgAAUCACgAAAAAAAAAA==

> <PUBCHEM_IUPAC_OPENEYE_NAME>
2-[(1R,2S,3S,4R,5S,6S)-2-[(2R,3R,4R,5S)-3-[(2S,3S,4S,5R,6S)-4,5-dihydroxy-6-(hydroxymethyl)-3-(methylamino)tetrahydropyran-2-yl]oxy-4-formyl-4-hydroxy-5-methyl-tetrahydrofuran-2-yl]oxy-5-guanidino-3,4,6-trihydroxy-cyclohexyl]guanidine;sulfuric acid

> <PUBCHEM_IUPAC_CAS_NAME>
2-[(1S,2S,3R,4S,5S,6R)-3-(diaminomethylideneamino)-4-[[(2R,3R,4R,5S)-3-[[(2S,3S,4S,5R,6S)-4,5-dihydroxy-6-(hydroxymethyl)-3-(methylamino)-2-oxanyl]oxy]-4-formyl-4-hydroxy-5-methyl-2-oxolanyl]oxy]-2,5,6-trihydroxycyclohexyl]guanidine;sulfuric acid

> <PUBCHEM_IUPAC_NAME_MARKUP>
2-[(1<I>S</I>,2<I>S</I>,3<I>R</I>,4<I>S</I>,5<I>S</I>,6<I>R</I>)-3-(diaminomethylideneamino)-4-[(2<I>R</I>,3<I>R</I>,4<I>R</I>,5<I>S</I>)-3-[(2<I>S</I>,3<I>S</I>,4<I>S</I>,5<I>R</I>,6<I>S</I>)-4,5-dihydroxy-6-(hydroxymethyl)-3-(methylamino)oxan-2-yl]oxy-4-formyl-4-hydroxy-5-methyloxolan-2-yl]oxy-2,5,6-trihydroxycyclohexyl]guanidine;sulfuric acid

> <PUBCHEM_IUPAC_NAME>
2-[(1S,2S,3R,4S,5S,6R)-3-(diaminomethylideneamino)-4-[(2R,3R,4R,5S)-3-[(2S,3S,4S,5R,6S)-4,5-dihydroxy-6-(hydroxymethyl)-3-(methylamino)oxan-2-yl]oxy-4-formyl-4-hydroxy-5-methyloxolan-2-yl]oxy-2,5,6-trihydroxycyclohexyl]guanidine;sulfuric acid

> <PUBCHEM_IUPAC_SYSTEMATIC_NAME>
2-[(1S,2S,3R,4S,5S,6R)-3-[bis(azanyl)methylideneamino]-4-[(2R,3R,4R,5S)-3-[(2S,3S,4S,5R,6S)-6-(hydroxymethyl)-3-(methylamino)-4,5-bis(oxidanyl)oxan-2-yl]oxy-4-methanoyl-5-methyl-4-oxidanyl-oxolan-2-yl]oxy-2,5,6-tris(oxidanyl)cyclohexyl]guanidine;sulfuric acid

> <PUBCHEM_IUPAC_TRADITIONAL_NAME>
2-[(1R,2S,3S,4R,5S,6S)-2-[(2R,3R,4R,5S)-3-[(2S,3S,4S,5R,6S)-4,5-dihydroxy-3-(methylamino)-6-methylol-tetrahydropyran-2-yl]oxy-4-formyl-4-hydroxy-5-methyl-tetrahydrofuran-2-yl]oxy-5-guanidino-3,4,6-trihydroxy-cyclohexyl]guanidine;sulfuric acid

> <PUBCHEM_IUPAC_INCHI>
InChI=1S/2C21H39N7O12.3H2O4S/c2*1-5-21(36,4-30)16(40-17-9(26-2)13(34)10(31)6(3-29)38-17)18(37-5)39-15-8(28-20(24)25)11(32)7(27-19(22)23)12(33)14(15)35;3*1-5(2,3)4/h2*4-18,26,29,31-36H,3H2,1-2H3,(H4,22,23,27)(H4,24,25,28);3*(H2,1,2,3,4)/t2*5-,6-,7-,8+,9-,10-,11-,12+,13-,14-,15-,16-,17-,18-,21+;;;/m00.../s1

> <PUBCHEM_IUPAC_INCHIKEY>
QTENRWWVYAAPBI-YZTFXSNBSA-N

> <PUBCHEM_EXACT_MASS>
1456.433479

> <PUBCHEM_MOLECULAR_FORMULA>
C42H84N14O36S3

> <PUBCHEM_MOLECULAR_WEIGHT>
1457.4

> <PUBCHEM_OPENEYE_CAN_SMILES>
CC1C(C(C(O1)OC2C(C(C(C(C2O)O)N=C(N)N)O)N=C(N)N)OC3C(C(C(C(O3)CO)O)O)NC)(C=O)O.CC1C(C(C(O1)OC2C(C(C(C(C2O)O)N=C(N)N)O)N=C(N)N)OC3C(C(C(C(O3)CO)O)O)NC)(C=O)O.OS(=O)(=O)O.OS(=O)(=O)O.OS(=O)(=O)O

> <PUBCHEM_OPENEYE_ISO_SMILES>
C[C@H]1[C@@]([C@H]([C@@H](O1)O[C@H]2[C@@H]([C@H]([C@@H]([C@H]([C@@H]2O)O)N=C(N)N)O)N=C(N)N)O[C@H]3[C@H]([C@@H]([C@H]([C@@H](O3)CO)O)O)NC)(C=O)O.C[C@H]1[C@@]([C@H]([C@@H](O1)O[C@H]2[C@@H]([C@H]([C@@H]([C@H]([C@@H]2O)O)N=C(N)N)O)N=C(N)N)O[C@H]3[C@H]([C@@H]([C@H]([C@@H](O3)CO)O)O)NC)(C=O)O.OS(=O)(=O)O.OS(=O)(=O)O.OS(=O)(=O)O

> <PUBCHEM_CACTVS_TPSA>
922

> <PUBCHEM_MONOISOTOPIC_WEIGHT>
1456.433479

> <PUBCHEM_TOTAL_CHARGE>
0

> <PUBCHEM_HEAVY_ATOM_COUNT>
95

> <PUBCHEM_ATOM_DEF_STEREO_COUNT>
30

> <PUBCHEM_ATOM_UDEF_STEREO_COUNT>
0

> <PUBCHEM_BOND_DEF_STEREO_COUNT>
0

> <PUBCHEM_BOND_UDEF_STEREO_COUNT>
0

> <PUBCHEM_ISOTOPIC_ATOM_COUNT>
0

> <PUBCHEM_COMPONENT_COUNT>
5

> <PUBCHEM_CACTVS_TAUTO_COUNT>
-1

> <PUBCHEM_COORDINATE_TYPE>
1
5
255

> <PUBCHEM_BONDANNOTATIONS>
60  12  6
62  13  6
64  14  6
65  15  5
66  16  5
67  17  6
68  18  5
69  19  6
78  20  6
79  21  6
80  22  5
81  23  5
54  4  5
58  4  5
61  40  6
63  41  5
70  42  6
71  43  5
76  44  5
77  45  5
55  5  6
59  5  5
72  82  6
73  83  6
56  8  6
74  8  5
84  88  6
85  89  6
57  9  6
75  9  5

$$$$
6080540
  -OEChem-04052116402D

 47 51  0     1  0  0  0  0  0999 V2000
    7.5110    2.3404    0.0000 O   0  0  0  0  0  0  0  0  0  0  0  0
    7.3206   -0.1430    0.0000 O   0  0  0  0  0  0  0  0  0  0  0  0
    5.6648    2.8565    0.0000 O   0  0  0  0  0  0  0  0  0  0  0  0
    8.9025   -0.9512    0.0000 O   0  0  0  0  0  0  0  0  0  0  0  0
    2.9327    1.7118    0.0000 O   0  0  0  0  0  0  0  0  0  0  0  0
    3.5572    0.0963    0.0000 O   0  0  0  0  0  0  0  0  0  0  0  0
   10.6391   -2.1860    0.0000 O   0  0  0  0  0  0  0  0  0  0  0  0
   12.5422   -1.5713    0.0000 O   0  0  0  0  0  0  0  0  0  0  0  0
    6.2020    1.3894    0.0000 C   0  0  3  0  0  0  0  0  0  0  0  0
    7.0110    0.8016    0.0000 C   0  0  3  0  0  0  0  0  0  0  0  0
    7.8200    1.3894    0.0000 C   0  0  3  0  0  0  0  0  0  0  0  0
    5.3992    0.8030    0.0000 C   0  0  3  0  0  0  0  0  0  0  0  0
    6.5110    2.3404    0.0000 C   0  0  3  0  0  0  0  0  0  0  0  0
    6.7013   -0.1430    0.0000 C   0  0  0  0  0  0  0  0  0  0  0  0
    5.7073   -0.1422    0.0000 C   0  0  0  0  0  0  0  0  0  0  0  0
    8.6227    0.8030    0.0000 C   0  0  0  0  0  0  0  0  0  0  0  0
    4.6441    1.4449    0.0000 C   0  0  0  0  0  0  0  0  0  0  0  0
    8.3147   -0.1422    0.0000 C   0  0  0  0  0  0  0  0  0  0  0  0
    4.7712    2.4278    0.0000 C   0  0  0  0  0  0  0  0  0  0  0  0
    9.5743    1.1104    0.0000 C   0  0  0  0  0  0  0  0  0  0  0  0
    3.7114    1.0843    0.0000 C   0  0  0  0  0  0  0  0  0  0  0  0
   10.3163    0.4399    0.0000 C   0  0  0  0  0  0  0  0  0  0  0  0
   10.1067   -0.5378    0.0000 C   0  0  0  0  0  0  0  0  0  0  0  0
   11.2679    0.7473    0.0000 C   0  0  0  0  0  0  0  0  0  0  0  0
    2.0000    1.3513    0.0000 C   0  0  0  0  0  0  0  0  0  0  0  0
   10.8487   -1.2083    0.0000 C   0  0  0  0  0  0  0  0  0  0  0  0
   12.0099    0.0769    0.0000 C   0  0  0  0  0  0  0  0  0  0  0  0
   11.8003   -0.9009    0.0000 C   0  0  0  0  0  0  0  0  0  0  0  0
   11.3810   -2.8565    0.0000 C   0  0  0  0  0  0  0  0  0  0  0  0
    5.6999    1.7532    0.0000 H   0  0  0  0  0  0  0  0  0  0  0  0
    8.3221    1.7532    0.0000 H   0  0  0  0  0  0  0  0  0  0  0  0
    4.8843    0.4577    0.0000 H   0  0  0  0  0  0  0  0  0  0  0  0
    6.6786    2.9373    0.0000 H   0  0  0  0  0  0  0  0  0  0  0  0
    7.0649   -0.6453    0.0000 H   0  0  0  0  0  0  0  0  0  0  0  0
    5.3428   -0.6438    0.0000 H   0  0  0  0  0  0  0  0  0  0  0  0
    4.2688    2.7911    0.0000 H   0  0  0  0  0  0  0  0  0  0  0  0
    9.7042    1.7166    0.0000 H   0  0  0  0  0  0  0  0  0  0  0  0
    9.5167   -0.7284    0.0000 H   0  0  0  0  0  0  0  0  0  0  0  0
   11.3978    1.3535    0.0000 H   0  0  0  0  0  0  0  0  0  0  0  0
    1.7765    1.9296    0.0000 H   0  0  0  0  0  0  0  0  0  0  0  0
    1.4217    1.1278    0.0000 H   0  0  0  0  0  0  0  0  0  0  0  0
    2.2235    0.7730    0.0000 H   0  0  0  0  0  0  0  0  0  0  0  0
   12.5998    0.2675    0.0000 H   0  0  0  0  0  0  0  0  0  0  0  0
   13.1322   -1.3807    0.0000 H   0  0  0  0  0  0  0  0  0  0  0  0
   10.9654   -3.3165    0.0000 H   0  0  0  0  0  0  0  0  0  0  0  0
   11.8411   -3.2721    0.0000 H   0  0  0  0  0  0  0  0  0  0  0  0
   11.7967   -2.3964    0.0000 H   0  0  0  0  0  0  0  0  0  0  0  0
  1 11  1  0  0  0  0
  1 13  1  0  0  0  0
  2 10  1  0  0  0  0
  2 18  1  0  0  0  0
  3 13  1  0  0  0  0
  3 19  1  0  0  0  0
  4 18  2  0  0  0  0
  5 21  1  0  0  0  0
  5 25  1  0  0  0  0
  6 21  2  0  0  0  0
  7 26  1  0  0  0  0
  7 29  1  0  0  0  0
  8 28  1  0  0  0  0
  8 44  1  0  0  0  0
  9 10  1  0  0  0  0
  9 12  1  0  0  0  0
  9 13  1  0  0  0  0
  9 30  1  0  0  0  0
 10 11  1  0  0  0  0
 10 14  1  0  0  0  0
 11 16  1  0  0  0  0
 11 31  1  0  0  0  0
 12 15  1  0  0  0  0
 12 17  1  0  0  0  0
 12 32  1  0  0  0  0
 13 33  1  0  0  0  0
 14 15  2  0  0  0  0
 14 34  1  0  0  0  0
 15 35  1  0  0  0  0
 16 18  1  0  0  0  0
 16 20  2  0  0  0  0
 17 19  2  0  0  0  0
 17 21  1  0  0  0  0
 19 36  1  0  0  0  0
 20 22  1  0  0  0  0
 20 37  1  0  0  0  0
 22 23  2  0  0  0  0
 22 24  1  0  0  0  0
 23 26  1  0  0  0  0
 23 38  1  0  0  0  0
 24 27  2  0  0  0  0
 24 39  1  0  0  0  0
 25 40  1  0  0  0  0
 25 41  1  0  0  0  0
 25 42  1  0  0  0  0
 26 28  2  0  0  0  0
 27 28  1  0  0  0  0
 27 43  1  0  0  0  0
 29 45  1  0  0  0  0
 29 46  1  0  0  0  0
 29 47  1  0  0  0  0
M  END
> <PUBCHEM_COMPOUND_CID>
6080540

> <PUBCHEM_COMPOUND_CANONICALIZED>
1

> <PUBCHEM_CACTVS_COMPLEXITY>
829

> <PUBCHEM_CACTVS_HBOND_ACCEPTOR>
8

> <PUBCHEM_CACTVS_HBOND_DONOR>
1

> <PUBCHEM_CACTVS_ROTATABLE_BOND>
4

> <PUBCHEM_CACTVS_SUBSKEYS>
AAADceB4PAAAAAAAAAAAAAAAAAAAASJEAAAwQAAAAAASIEABAAAAGgAACAAADVSwmAMyDoAABgCIAiDSCAACCAAgIAAIiAEGiMgdJjaGMRqicCMl4BEPuYfK7PzOoAABAAAAQABAAAIAAACAAAAAAAAAAA==

> <PUBCHEM_IUPAC_OPENEYE_NAME>
methyl (11Z)-11-[(4-hydroxy-3-methoxy-phenyl)methylene]-12-oxo-7,9,13-trioxatetracyclo[6.5.1.01,10.04,14]tetradeca-2,5-diene-5-carboxylate

> <PUBCHEM_IUPAC_CAS_NAME>
(11Z)-11-[(4-hydroxy-3-methoxyphenyl)methylidene]-12-oxo-7,9,13-trioxatetracyclo[6.5.1.01,10.04,14]tetradeca-2,5-diene-5-carboxylic acid methyl ester

> <PUBCHEM_IUPAC_NAME_MARKUP>
methyl (11<I>Z</I>)-11-[(4-hydroxy-3-methoxyphenyl)methylidene]-12-oxo-7,9,13-trioxatetracyclo[6.5.1.0<SUP>1,10</SUP>.0<SUP>4,14</SUP>]tetradeca-2,5-diene-5-carboxylate

> <PUBCHEM_IUPAC_NAME>
methyl (11Z)-11-[(4-hydroxy-3-methoxyphenyl)methylidene]-12-oxo-7,9,13-trioxatetracyclo[6.5.1.01,10.04,14]tetradeca-2,5-diene-5-carboxylate

> <PUBCHEM_IUPAC_SYSTEMATIC_NAME>
methyl (11Z)-11-[(3-methoxy-4-oxidanyl-phenyl)methylidene]-12-oxidanylidene-7,9,13-trioxatetracyclo[6.5.1.01,10.04,14]tetradeca-2,5-diene-5-carboxylate

> <PUBCHEM_IUPAC_TRADITIONAL_NAME>
(11Z)-12-keto-11-vanillylidene-7,9,13-trioxatetracyclo[6.5.1.01,10.04,14]tetradeca-2,5-diene-5-carboxylic acid methyl ester

> <PUBCHEM_IUPAC_INCHI>
InChI=1S/C21H18O8/c1-25-15-8-10(3-4-14(15)22)7-12-17-21(29-19(12)24)6-5-11-13(18(23)26-2)9-27-20(28-17)16(11)21/h3-9,11,16-17,20,22H,1-2H3/b12-7-

> <PUBCHEM_IUPAC_INCHIKEY>
TXGZCLZZWWAVDP-GHXNOFRVSA-N

> <PUBCHEM_XLOGP3_AA>
1.7

> <PUBCHEM_EXACT_MASS>
398.100168

> <PUBCHEM_MOLECULAR_FORMULA>
C21H18O8

> <PUBCHEM_MOLECULAR_WEIGHT>
398.4

> <PUBCHEM_OPENEYE_CAN_SMILES>
COC1=C(C=CC(=C1)C=C2C3C4(C=CC5C4C(O3)OC=C5C(=O)OC)OC2=O)O

> <PUBCHEM_OPENEYE_ISO_SMILES>
COC1=C(C=CC(=C1)/C=C\2/C3C4(C=CC5C4C(O3)OC=C5C(=O)OC)OC2=O)O

> <PUBCHEM_CACTVS_TPSA>
101

> <PUBCHEM_MONOISOTOPIC_WEIGHT>
398.100168

> <PUBCHEM_TOTAL_CHARGE>
0

> <PUBCHEM_HEAVY_ATOM_COUNT>
29

> <PUBCHEM_ATOM_DEF_STEREO_COUNT>
0

> <PUBCHEM_ATOM_UDEF_STEREO_COUNT>
5

> <PUBCHEM_BOND_DEF_STEREO_COUNT>
1

> <PUBCHEM_BOND_UDEF_STEREO_COUNT>
0

> <PUBCHEM_ISOTOPIC_ATOM_COUNT>
0

> <PUBCHEM_COMPONENT_COUNT>
1

> <PUBCHEM_CACTVS_TAUTO_COUNT>
-1

> <PUBCHEM_COORDINATE_TYPE>
1
5
255

> <PUBCHEM_BONDANNOTATIONS>
10  14  3
11  16  3
12  15  3
22  23  8
22  24  8
23  26  8
24  27  8
26  28  8
27  28  8
13  3  3
9  12  3

$$$$
5467556
  -OEChem-04052116402D

 47 51  0     1  0  0  0  0  0999 V2000
    7.5110    0.0974    0.0000 O   0  0  0  0  0  0  0  0  0  0  0  0
    7.3206   -2.3860    0.0000 O   0  0  0  0  0  0  0  0  0  0  0  0
    5.6648    0.6135    0.0000 O   0  0  0  0  0  0  0  0  0  0  0  0
    8.9025   -3.1942    0.0000 O   0  0  0  0  0  0  0  0  0  0  0  0
    2.9327   -0.5311    0.0000 O   0  0  0  0  0  0  0  0  0  0  0  0
    3.5572   -2.1467    0.0000 O   0  0  0  0  0  0  0  0  0  0  0  0
   11.8967    1.4377    0.0000 O   0  0  0  0  0  0  0  0  0  0  0  0
   10.4127    2.7785    0.0000 O   0  0  0  0  0  0  0  0  0  0  0  0
    6.2020   -0.8536    0.0000 C   0  0  3  0  0  0  0  0  0  0  0  0
    7.0110   -1.4414    0.0000 C   0  0  3  0  0  0  0  0  0  0  0  0
    7.8200   -0.8536    0.0000 C   0  0  3  0  0  0  0  0  0  0  0  0
    5.3992   -1.4400    0.0000 C   0  0  3  0  0  0  0  0  0  0  0  0
    6.5110    0.0974    0.0000 C   0  0  3  0  0  0  0  0  0  0  0  0
    6.7013   -2.3860    0.0000 C   0  0  0  0  0  0  0  0  0  0  0  0
    5.7073   -2.3852    0.0000 C   0  0  0  0  0  0  0  0  0  0  0  0
    8.6227   -1.4400    0.0000 C   0  0  0  0  0  0  0  0  0  0  0  0
    4.6441   -0.7981    0.0000 C   0  0  0  0  0  0  0  0  0  0  0  0
    8.3147   -2.3852    0.0000 C   0  0  0  0  0  0  0  0  0  0  0  0
    4.7712    0.1848    0.0000 C   0  0  0  0  0  0  0  0  0  0  0  0
    9.5743   -1.1326    0.0000 C   0  0  0  0  0  0  0  0  0  0  0  0
    3.7114   -1.1586    0.0000 C   0  0  0  0  0  0  0  0  0  0  0  0
    9.7839   -0.1548    0.0000 C   0  0  0  0  0  0  0  0  0  0  0  0
   10.7355    0.1525    0.0000 C   0  0  0  0  0  0  0  0  0  0  0  0
    9.0419    0.5156    0.0000 C   0  0  0  0  0  0  0  0  0  0  0  0
    2.0000   -0.8917    0.0000 C   0  0  0  0  0  0  0  0  0  0  0  0
   10.9451    1.1303    0.0000 C   0  0  0  0  0  0  0  0  0  0  0  0
    9.2515    1.4934    0.0000 C   0  0  0  0  0  0  0  0  0  0  0  0
   10.2031    1.8007    0.0000 C   0  0  0  0  0  0  0  0  0  0  0  0
   12.6387    0.7673    0.0000 C   0  0  0  0  0  0  0  0  0  0  0  0
    5.6999   -0.4898    0.0000 H   0  0  0  0  0  0  0  0  0  0  0  0
    8.3221   -0.4898    0.0000 H   0  0  0  0  0  0  0  0  0  0  0  0
    4.8843   -1.7853    0.0000 H   0  0  0  0  0  0  0  0  0  0  0  0
    6.6786    0.6944    0.0000 H   0  0  0  0  0  0  0  0  0  0  0  0
    7.0649   -2.8882    0.0000 H   0  0  0  0  0  0  0  0  0  0  0  0
    5.3428   -2.8868    0.0000 H   0  0  0  0  0  0  0  0  0  0  0  0
    4.2688    0.5481    0.0000 H   0  0  0  0  0  0  0  0  0  0  0  0
   10.0343   -1.5483    0.0000 H   0  0  0  0  0  0  0  0  0  0  0  0
   11.1955   -0.2631    0.0000 H   0  0  0  0  0  0  0  0  0  0  0  0
    8.4519    0.3250    0.0000 H   0  0  0  0  0  0  0  0  0  0  0  0
    1.7765   -0.3134    0.0000 H   0  0  0  0  0  0  0  0  0  0  0  0
    1.4217   -1.1152    0.0000 H   0  0  0  0  0  0  0  0  0  0  0  0
    2.2235   -1.4700    0.0000 H   0  0  0  0  0  0  0  0  0  0  0  0
    8.7915    1.9090    0.0000 H   0  0  0  0  0  0  0  0  0  0  0  0
    9.9527    3.1942    0.0000 H   0  0  0  0  0  0  0  0  0  0  0  0
   12.2230    0.3072    0.0000 H   0  0  0  0  0  0  0  0  0  0  0  0
   13.0987    0.3516    0.0000 H   0  0  0  0  0  0  0  0  0  0  0  0
   13.0543    1.2273    0.0000 H   0  0  0  0  0  0  0  0  0  0  0  0
  1 11  1  0  0  0  0
  1 13  1  0  0  0  0
  2 10  1  0  0  0  0
  2 18  1  0  0  0  0
  3 13  1  0  0  0  0
  3 19  1  0  0  0  0
  4 18  2  0  0  0  0
  5 21  1  0  0  0  0
  5 25  1  0  0  0  0
  6 21  2  0  0  0  0
  7 26  1  0  0  0  0
  7 29  1  0  0  0  0
  8 28  1  0  0  0  0
  8 44  1  0  0  0  0
  9 10  1  0  0  0  0
  9 12  1  0  0  0  0
  9 13  1  0  0  0  0
  9 30  1  0  0  0  0
 10 11  1  0  0  0  0
 10 14  1  0  0  0  0
 11 16  1  0  0  0  0
 11 31  1  0  0  0  0
 12 15  1  0  0  0  0
 12 17  1  0  0  0  0
 12 32  1  0  0  0  0
 13 33  1  0  0  0  0
 14 15  2  0  0  0  0
 14 34  1  0  0  0  0
 15 35  1  0  0  0  0
 16 18  1  0  0  0  0
 16 20  2  0  0  0  0
 17 19  2  0  0  0  0
 17 21  1  0  0  0  0
 19 36  1  0  0  0  0
 20 22  1  0  0  0  0
 20 37  1  0  0  0  0
 22 23  2  0  0  0  0
 22 24  1  0  0  0  0
 23 26  1  0  0  0  0
 23 38  1  0  0  0  0
 24 27  2  0  0  0  0
 24 39  1  0  0  0  0
 25 40  1  0  0  0  0
 25 41  1  0  0  0  0
 25 42  1  0  0  0  0
 26 28  2  0  0  0  0
 27 28  1  0  0  0  0
 27 43  1  0  0  0  0
 29 45  1  0  0  0  0
 29 46  1  0  0  0  0
 29 47  1  0  0  0  0
M  END
> <PUBCHEM_COMPOUND_CID>
5467556

> <PUBCHEM_COMPOUND_CANONICALIZED>
1

> <PUBCHEM_CACTVS_COMPLEXITY>
829

> <PUBCHEM_CACTVS_HBOND_ACCEPTOR>
8

> <PUBCHEM_CACTVS_HBOND_DONOR>
1

> <PUBCHEM_CACTVS_ROTATABLE_BOND>
4

> <PUBCHEM_CACTVS_SUBSKEYS>
AAADceB4PAAAAAAAAAAAAAAAAAAAASJEAAAwQAAAAAASIEABAAAAGgAACAAADVSwmAMyDoAABgCIAiDSCAACCAAgIAAIiAEGiMgdJjaGMRqicCMl4BEPuYfK7PzOoAABAAAAQABAAAIAAACAAAAAAAAAAA==

> <PUBCHEM_IUPAC_OPENEYE_NAME>
methyl (11E)-11-[(4-hydroxy-3-methoxy-phenyl)methylene]-12-oxo-7,9,13-trioxatetracyclo[6.5.1.01,10.04,14]tetradeca-2,5-diene-5-carboxylate

> <PUBCHEM_IUPAC_CAS_NAME>
(11E)-11-[(4-hydroxy-3-methoxyphenyl)methylidene]-12-oxo-7,9,13-trioxatetracyclo[6.5.1.01,10.04,14]tetradeca-2,5-diene-5-carboxylic acid methyl ester

> <PUBCHEM_IUPAC_NAME_MARKUP>
methyl (11<I>E</I>)-11-[(4-hydroxy-3-methoxyphenyl)methylidene]-12-oxo-7,9,13-trioxatetracyclo[6.5.1.0<SUP>1,10</SUP>.0<SUP>4,14</SUP>]tetradeca-2,5-diene-5-carboxylate

> <PUBCHEM_IUPAC_NAME>
methyl (11E)-11-[(4-hydroxy-3-methoxyphenyl)methylidene]-12-oxo-7,9,13-trioxatetracyclo[6.5.1.01,10.04,14]tetradeca-2,5-diene-5-carboxylate

> <PUBCHEM_IUPAC_SYSTEMATIC_NAME>
methyl (11E)-11-[(3-methoxy-4-oxidanyl-phenyl)methylidene]-12-oxidanylidene-7,9,13-trioxatetracyclo[6.5.1.01,10.04,14]tetradeca-2,5-diene-5-carboxylate

> <PUBCHEM_IUPAC_TRADITIONAL_NAME>
(11E)-12-keto-11-vanillylidene-7,9,13-trioxatetracyclo[6.5.1.01,10.04,14]tetradeca-2,5-diene-5-carboxylic acid methyl ester

> <PUBCHEM_IUPAC_INCHI>
InChI=1S/C21H18O8/c1-25-15-8-10(3-4-14(15)22)7-12-17-21(29-19(12)24)6-5-11-13(18(23)26-2)9-27-20(28-17)16(11)21/h3-9,11,16-17,20,22H,1-2H3/b12-7+

> <PUBCHEM_IUPAC_INCHIKEY>
TXGZCLZZWWAVDP-KPKJPENVSA-N

> <PUBCHEM_XLOGP3_AA>
1.7

> <PUBCHEM_EXACT_MASS>
398.100168

> <PUBCHEM_MOLECULAR_FORMULA>
C21H18O8

> <PUBCHEM_MOLECULAR_WEIGHT>
398.4

> <PUBCHEM_OPENEYE_CAN_SMILES>
COC1=C(C=CC(=C1)C=C2C3C4(C=CC5C4C(O3)OC=C5C(=O)OC)OC2=O)O

> <PUBCHEM_OPENEYE_ISO_SMILES>
COC1=C(C=CC(=C1)/C=C/2\C3C4(C=CC5C4C(O3)OC=C5C(=O)OC)OC2=O)O

> <PUBCHEM_CACTVS_TPSA>
101

> <PUBCHEM_MONOISOTOPIC_WEIGHT>
398.100168

> <PUBCHEM_TOTAL_CHARGE>
0

> <PUBCHEM_HEAVY_ATOM_COUNT>
29

> <PUBCHEM_ATOM_DEF_STEREO_COUNT>
0

> <PUBCHEM_ATOM_UDEF_STEREO_COUNT>
5

> <PUBCHEM_BOND_DEF_STEREO_COUNT>
1

> <PUBCHEM_BOND_UDEF_STEREO_COUNT>
0

> <PUBCHEM_ISOTOPIC_ATOM_COUNT>
0

> <PUBCHEM_COMPONENT_COUNT>
1

> <PUBCHEM_CACTVS_TAUTO_COUNT>
-1

> <PUBCHEM_COORDINATE_TYPE>
1
5
255

> <PUBCHEM_BONDANNOTATIONS>
10  14  3
11  16  3
12  15  3
22  23  8
22  24  8
23  26  8
24  27  8
26  28  8
27  28  8
13  3  3
9  12  3

$$$$
5460155
  -OEChem-04052116402D

 38 40  0     1  0  0  0  0  0999 V2000
    5.1350    0.0158    0.0000 O   0  0  0  0  0  0  0  0  0  0  0  0
    6.8671    0.0158    0.0000 O   0  0  0  0  0  0  0  0  0  0  0  0
    5.1350   -2.9842    0.0000 O   0  0  0  0  0  0  0  0  0  0  0  0
    3.4030   -1.9842    0.0000 O   0  0  0  0  0  0  0  0  0  0  0  0
    6.8671   -1.9842    0.0000 O   0  0  0  0  0  0  0  0  0  0  0  0
    2.5369   -0.4842    0.0000 O   0  0  0  0  0  0  0  0  0  0  0  0
    6.3671    2.5456    0.0000 N   0  0  0  0  0  0  0  0  0  0  0  0
    5.1350   -1.9842    0.0000 C   0  0  3  0  0  0  0  0  0  0  0  0
    4.2690   -1.4842    0.0000 C   0  0  1  0  0  0  0  0  0  0  0  0
    6.0010   -1.4842    0.0000 C   0  0  1  0  0  0  0  0  0  0  0  0
    4.2690   -0.4842    0.0000 C   0  0  3  0  0  0  0  0  0  0  0  0
    6.0010   -0.4842    0.0000 C   0  0  1  0  0  0  0  0  0  0  0  0
    3.4030    0.0158    0.0000 C   0  0  0  0  0  0  0  0  0  0  0  0
    6.8671    1.0158    0.0000 C   0  0  0  0  0  0  0  0  0  0  0  0
    7.6718    1.5994    0.0000 C   0  0  0  0  0  0  0  0  0  0  0  0
    7.3611    2.5499    0.0000 C   0  0  0  0  0  0  0  0  0  0  0  0
    6.0623    1.5994    0.0000 C   0  0  0  0  0  0  0  0  0  0  0  0
    8.6503    1.3932    0.0000 C   0  0  0  0  0  0  0  0  0  0  0  0
    8.0290    3.2942    0.0000 C   0  0  0  0  0  0  0  0  0  0  0  0
    9.3181    2.1375    0.0000 C   0  0  0  0  0  0  0  0  0  0  0  0
    9.0075    3.0880    0.0000 C   0  0  0  0  0  0  0  0  0  0  0  0
    4.5981   -2.2942    0.0000 H   0  0  0  0  0  0  0  0  0  0  0  0
    4.2690   -2.1042    0.0000 H   0  0  0  0  0  0  0  0  0  0  0  0
    6.0010   -2.1042    0.0000 H   0  0  0  0  0  0  0  0  0  0  0  0
    4.2690    0.1358    0.0000 H   0  0  0  0  0  0  0  0  0  0  0  0
    6.0010    0.1358    0.0000 H   0  0  0  0  0  0  0  0  0  0  0  0
    3.8015    0.4907    0.0000 H   0  0  0  0  0  0  0  0  0  0  0  0
    3.0044    0.4907    0.0000 H   0  0  0  0  0  0  0  0  0  0  0  0
    4.5981   -3.2942    0.0000 H   0  0  0  0  0  0  0  0  0  0  0  0
    3.4030   -2.6042    0.0000 H   0  0  0  0  0  0  0  0  0  0  0  0
    6.8671   -2.6042    0.0000 H   0  0  0  0  0  0  0  0  0  0  0  0
    5.4730    1.4068    0.0000 H   0  0  0  0  0  0  0  0  0  0  0  0
    2.0000   -0.1742    0.0000 H   0  0  0  0  0  0  0  0  0  0  0  0
    6.0009    3.0459    0.0000 H   0  0  0  0  0  0  0  0  0  0  0  0
    8.8429    0.8039    0.0000 H   0  0  0  0  0  0  0  0  0  0  0  0
    7.8364    3.8835    0.0000 H   0  0  0  0  0  0  0  0  0  0  0  0
    9.9248    2.0096    0.0000 H   0  0  0  0  0  0  0  0  0  0  0  0
    9.4216    3.5495    0.0000 H   0  0  0  0  0  0  0  0  0  0  0  0
  1 11  1  0  0  0  0
  1 12  1  0  0  0  0
 12  2  1  1  0  0  0
  2 14  1  0  0  0  0
  3  8  1  0  0  0  0
  3 29  1  0  0  0  0
  9  4  1  6  0  0  0
  4 30  1  0  0  0  0
 10  5  1  1  0  0  0
  5 31  1  0  0  0  0
  6 13  1  0  0  0  0
  6 33  1  0  0  0  0
  7 16  1  0  0  0  0
  7 17  1  0  0  0  0
  7 34  1  0  0  0  0
  8  9  1  0  0  0  0
  8 10  1  0  0  0  0
  8 22  1  0  0  0  0
  9 11  1  0  0  0  0
  9 23  1  0  0  0  0
 10 12  1  0  0  0  0
 10 24  1  0  0  0  0
 11 13  1  0  0  0  0
 11 25  1  0  0  0  0
 12 26  1  0  0  0  0
 13 27  1  0  0  0  0
 13 28  1  0  0  0  0
 14 15  1  0  0  0  0
 14 17  2  0  0  0  0
 15 16  1  0  0  0  0
 15 18  2  0  0  0  0
 16 19  2  0  0  0  0
 17 32  1  0  0  0  0
 18 20  1  0  0  0  0
 18 35  1  0  0  0  0
 19 21  1  0  0  0  0
 19 36  1  0  0  0  0
 20 21  2  0  0  0  0
 20 37  1  0  0  0  0
 21 38  1  0  0  0  0
M  END
> <PUBCHEM_COMPOUND_CID>
5460155

> <PUBCHEM_COMPOUND_CANONICALIZED>
1

> <PUBCHEM_CACTVS_COMPLEXITY>
356

> <PUBCHEM_CACTVS_HBOND_ACCEPTOR>
6

> <PUBCHEM_CACTVS_HBOND_DONOR>
5

> <PUBCHEM_CACTVS_ROTATABLE_BOND>
3

> <PUBCHEM_CACTVS_SUBSKEYS>
AAADceByOAAAAAAAAAAAAAAAAAAAAWAAAAA0QAAAAAAAAFgB8AAAHgAQCAAADBzxngc8zvLJlgCgAzRnRASCiCAxYiAI2aA/bJgfNuLEsZuneCjn0Bnf6AfQ4KwOAAAAAAACAAAAAAAAAAQAAAAAAAAAAA==

> <PUBCHEM_IUPAC_OPENEYE_NAME>
(3S,5S,6S)-2-(hydroxymethyl)-6-(1H-indol-3-yloxy)tetrahydropyran-3,4,5-triol

> <PUBCHEM_IUPAC_CAS_NAME>
(3S,5S,6S)-2-(hydroxymethyl)-6-(1H-indol-3-yloxy)oxane-3,4,5-triol

> <PUBCHEM_IUPAC_NAME_MARKUP>
(3<I>S</I>,5<I>S</I>,6<I>S</I>)-2-(hydroxymethyl)-6-(1<I>H</I>-indol-3-yloxy)oxane-3,4,5-triol

> <PUBCHEM_IUPAC_NAME>
(3S,5S,6S)-2-(hydroxymethyl)-6-(1H-indol-3-yloxy)oxane-3,4,5-triol

> <PUBCHEM_IUPAC_SYSTEMATIC_NAME>
(3S,5S,6S)-2-(hydroxymethyl)-6-(1H-indol-3-yloxy)oxane-3,4,5-triol

> <PUBCHEM_IUPAC_TRADITIONAL_NAME>
(2S,3S,5S)-2-(1H-indol-3-yloxy)-6-methylol-tetrahydropyran-3,4,5-triol

> <PUBCHEM_IUPAC_INCHI>
InChI=1S/C14H17NO6/c16-6-10-11(17)12(18)13(19)14(21-10)20-9-5-15-8-4-2-1-3-7(8)9/h1-5,10-19H,6H2/t10?,11-,12?,13+,14-/m1/s1

> <PUBCHEM_IUPAC_INCHIKEY>
XVARCVCWNFACQC-LNNYQDNLSA-N

> <PUBCHEM_XLOGP3_AA>
-0.1

> <PUBCHEM_EXACT_MASS>
295.105587

> <PUBCHEM_MOLECULAR_FORMULA>
C14H17NO6

> <PUBCHEM_MOLECULAR_WEIGHT>
295.29

> <PUBCHEM_OPENEYE_CAN_SMILES>
C1=CC=C2C(=C1)C(=CN2)OC3C(C(C(C(O3)CO)O)O)O

> <PUBCHEM_OPENEYE_ISO_SMILES>
C1=CC=C2C(=C1)C(=CN2)O[C@H]3[C@H](C([C@@H](C(O3)CO)O)O)O

> <PUBCHEM_CACTVS_TPSA>
115

> <PUBCHEM_MONOISOTOPIC_WEIGHT>
295.105587

> <PUBCHEM_TOTAL_CHARGE>
0

> <PUBCHEM_HEAVY_ATOM_COUNT>
21

> <PUBCHEM_ATOM_DEF_STEREO_COUNT>
3

> <PUBCHEM_ATOM_UDEF_STEREO_COUNT>
2

> <PUBCHEM_BOND_DEF_STEREO_COUNT>
0

> <PUBCHEM_BOND_UDEF_STEREO_COUNT>
0

> <PUBCHEM_ISOTOPIC_ATOM_COUNT>
0

> <PUBCHEM_COMPONENT_COUNT>
1

> <PUBCHEM_CACTVS_TAUTO_COUNT>
-1

> <PUBCHEM_COORDINATE_TYPE>
1
5
255

> <PUBCHEM_BONDANNOTATIONS>
11  13  3
14  15  8
14  17  8
15  16  8
15  18  8
16  19  8
18  20  8
19  21  8
12  2  5
20  21  8
8  3  3
9  4  6
10  5  5
7  16  8
7  17  8

$$$$
5459105
  -OEChem-04052116402D

110112  0     1  0  0  0  0  0999 V2000
   16.1466   -0.2421    0.0000 O   0  0  0  0  0  0  0  0  0  0  0  0
   18.2157   -0.9144    0.0000 O   0  0  0  0  0  0  0  0  0  0  0  0
   14.1786   -0.9415    0.0000 O   0  0  0  0  0  0  0  0  0  0  0  0
   19.3967   -2.6370    0.0000 O   0  0  0  0  0  0  0  0  0  0  0  0
    5.3803    3.4845    0.0000 O   0  0  0  0  0  0  0  0  0  0  0  0
    2.0000    3.5246    0.0000 O   0  0  0  0  0  0  0  0  0  0  0  0
    2.0933    1.7450    0.0000 O   0  0  0  0  0  0  0  0  0  0  0  0
   16.9556    0.3457    0.0000 C   0  0  2  0  0  0  0  0  0  0  0  0
   17.9066    0.0366    0.0000 C   0  0  2  0  0  0  0  0  0  0  0  0
   16.6466    1.2967    0.0000 C   0  0  0  0  0  0  0  0  0  0  0  0
   18.7157    0.6244    0.0000 C   0  0  0  0  0  0  0  0  0  0  0  0
   15.3376    0.3457    0.0000 C   0  0  1  0  0  0  0  0  0  0  0  0
   19.2157   -0.9144    0.0000 C   0  0  1  0  0  0  0  0  0  0  0  0
   15.6466    1.2967    0.0000 C   0  0  0  0  0  0  0  0  0  0  0  0
   19.5247    0.0366    0.0000 C   0  0  0  0  0  0  0  0  0  0  0  0
   14.3865    0.0366    0.0000 C   0  0  2  0  0  0  0  0  0  0  0  0
   19.8034   -1.7234    0.0000 C   0  0  1  0  0  0  0  0  0  0  0  0
   13.6434    0.7058    0.0000 C   0  0  0  0  0  0  0  0  0  0  0  0
   20.7980   -1.6189    0.0000 C   0  0  0  0  0  0  0  0  0  0  0  0
   12.6923    0.3968    0.0000 C   0  0  0  0  0  0  0  0  0  0  0  0
   21.3858   -2.4279    0.0000 C   0  0  0  0  0  0  0  0  0  0  0  0
   11.9492    1.0659    0.0000 C   0  0  0  0  0  0  0  0  0  0  0  0
   22.3803   -2.3234    0.0000 C   0  0  0  0  0  0  0  0  0  0  0  0
   10.9981    0.7569    0.0000 C   0  0  0  0  0  0  0  0  0  0  0  0
   22.9681   -3.1324    0.0000 C   0  0  0  0  0  0  0  0  0  0  0  0
   10.2550    1.4260    0.0000 C   0  0  0  0  0  0  0  0  0  0  0  0
   23.9626   -3.0279    0.0000 C   0  0  0  0  0  0  0  0  0  0  0  0
    9.3039    1.1170    0.0000 C   0  0  0  0  0  0  0  0  0  0  0  0
   24.5504   -3.8369    0.0000 C   0  0  0  0  0  0  0  0  0  0  0  0
    8.5608    1.7861    0.0000 C   0  0  0  0  0  0  0  0  0  0  0  0
    7.6097    1.4771    0.0000 C   0  0  0  0  0  0  0  0  0  0  0  0
   25.5449   -3.7324    0.0000 C   0  0  0  0  0  0  0  0  0  0  0  0
    6.8666    2.1462    0.0000 C   0  0  0  0  0  0  0  0  0  0  0  0
   26.1327   -4.5414    0.0000 C   0  0  0  0  0  0  0  0  0  0  0  0
    5.9155    1.8372    0.0000 C   0  0  0  0  0  0  0  0  0  0  0  0
    5.1724    2.5064    0.0000 C   0  0  1  0  0  0  0  0  0  0  0  0
   27.1272   -4.4368    0.0000 C   0  0  0  0  0  0  0  0  0  0  0  0
    4.2213    2.1973    0.0000 C   0  0  0  0  0  0  0  0  0  0  0  0
    3.4782    2.8665    0.0000 C   0  0  0  0  0  0  0  0  0  0  0  0
   27.7150   -5.2459    0.0000 C   0  0  0  0  0  0  0  0  0  0  0  0
    3.5827    3.8610    0.0000 C   0  0  0  0  0  0  0  0  0  0  0  0
    2.6691    4.2677    0.0000 C   0  0  3  0  0  0  0  0  0  0  0  0
    2.5000    2.6586    0.0000 C   0  0  0  0  0  0  0  0  0  0  0  0
    2.4612    5.2459    0.0000 C   0  0  0  0  0  0  0  0  0  0  0  0
   17.0886   -0.4939    0.0000 H   0  0  0  0  0  0  0  0  0  0  0  0
   17.3056   -0.5644    0.0000 H   0  0  0  0  0  0  0  0  0  0  0  0
   17.2530    1.4256    0.0000 H   0  0  0  0  0  0  0  0  0  0  0  0
   16.5818    1.9133    0.0000 H   0  0  0  0  0  0  0  0  0  0  0  0
   19.1305    1.0852    0.0000 H   0  0  0  0  0  0  0  0  0  0  0  0
   18.3008    1.0852    0.0000 H   0  0  0  0  0  0  0  0  0  0  0  0
   15.2046   -0.4939    0.0000 H   0  0  0  0  0  0  0  0  0  0  0  0
   18.8298   -1.6718    0.0000 H   0  0  0  0  0  0  0  0  0  0  0  0
   15.7114    1.9133    0.0000 H   0  0  0  0  0  0  0  0  0  0  0  0
   15.0401    1.4256    0.0000 H   0  0  0  0  0  0  0  0  0  0  0  0
   20.0911   -0.2155    0.0000 H   0  0  0  0  0  0  0  0  0  0  0  0
   19.8347    0.5736    0.0000 H   0  0  0  0  0  0  0  0  0  0  0  0
   13.7968   -0.1549    0.0000 H   0  0  0  0  0  0  0  0  0  0  0  0
   20.1679   -2.2250    0.0000 H   0  0  0  0  0  0  0  0  0  0  0  0
   14.1319    1.0875    0.0000 H   0  0  0  0  0  0  0  0  0  0  0  0
   13.3523    1.2532    0.0000 H   0  0  0  0  0  0  0  0  0  0  0  0
   21.3552   -1.3471    0.0000 H   0  0  0  0  0  0  0  0  0  0  0  0
   20.6271   -1.0229    0.0000 H   0  0  0  0  0  0  0  0  0  0  0  0
   12.2037    0.0151    0.0000 H   0  0  0  0  0  0  0  0  0  0  0  0
   12.9834   -0.1507    0.0000 H   0  0  0  0  0  0  0  0  0  0  0  0
   20.8285   -2.6997    0.0000 H   0  0  0  0  0  0  0  0  0  0  0  0
   21.5567   -3.0239    0.0000 H   0  0  0  0  0  0  0  0  0  0  0  0
   13.5889   -1.1331    0.0000 H   0  0  0  0  0  0  0  0  0  0  0  0
   19.7611   -3.1386    0.0000 H   0  0  0  0  0  0  0  0  0  0  0  0
   12.4377    1.4476    0.0000 H   0  0  0  0  0  0  0  0  0  0  0  0
   11.6581    1.6133    0.0000 H   0  0  0  0  0  0  0  0  0  0  0  0
   22.9375   -2.0516    0.0000 H   0  0  0  0  0  0  0  0  0  0  0  0
   22.2094   -1.7274    0.0000 H   0  0  0  0  0  0  0  0  0  0  0  0
   10.5095    0.3752    0.0000 H   0  0  0  0  0  0  0  0  0  0  0  0
   11.2892    0.2094    0.0000 H   0  0  0  0  0  0  0  0  0  0  0  0
   22.4108   -3.4042    0.0000 H   0  0  0  0  0  0  0  0  0  0  0  0
   23.1390   -3.7284    0.0000 H   0  0  0  0  0  0  0  0  0  0  0  0
   10.7435    1.8077    0.0000 H   0  0  0  0  0  0  0  0  0  0  0  0
    9.9639    1.9734    0.0000 H   0  0  0  0  0  0  0  0  0  0  0  0
   24.5198   -2.7561    0.0000 H   0  0  0  0  0  0  0  0  0  0  0  0
   23.7917   -2.4319    0.0000 H   0  0  0  0  0  0  0  0  0  0  0  0
    8.8153    0.7353    0.0000 H   0  0  0  0  0  0  0  0  0  0  0  0
    9.5950    0.5696    0.0000 H   0  0  0  0  0  0  0  0  0  0  0  0
   23.9931   -4.1087    0.0000 H   0  0  0  0  0  0  0  0  0  0  0  0
   24.7213   -4.4329    0.0000 H   0  0  0  0  0  0  0  0  0  0  0  0
    9.0493    2.1678    0.0000 H   0  0  0  0  0  0  0  0  0  0  0  0
    8.2697    2.3335    0.0000 H   0  0  0  0  0  0  0  0  0  0  0  0
    7.1211    1.0954    0.0000 H   0  0  0  0  0  0  0  0  0  0  0  0
    7.9008    0.9297    0.0000 H   0  0  0  0  0  0  0  0  0  0  0  0
   26.1021   -3.4606    0.0000 H   0  0  0  0  0  0  0  0  0  0  0  0
   25.3740   -3.1364    0.0000 H   0  0  0  0  0  0  0  0  0  0  0  0
    7.3551    2.5279    0.0000 H   0  0  0  0  0  0  0  0  0  0  0  0
    6.5755    2.6937    0.0000 H   0  0  0  0  0  0  0  0  0  0  0  0
   25.5754   -4.8132    0.0000 H   0  0  0  0  0  0  0  0  0  0  0  0
   26.3036   -5.1374    0.0000 H   0  0  0  0  0  0  0  0  0  0  0  0
    5.4269    1.4555    0.0000 H   0  0  0  0  0  0  0  0  0  0  0  0
    6.2066    1.2898    0.0000 H   0  0  0  0  0  0  0  0  0  0  0  0
    5.7620    2.6979    0.0000 H   0  0  0  0  0  0  0  0  0  0  0  0
   27.6845   -4.1651    0.0000 H   0  0  0  0  0  0  0  0  0  0  0  0
   26.9563   -3.8409    0.0000 H   0  0  0  0  0  0  0  0  0  0  0  0
    3.7327    1.8156    0.0000 H   0  0  0  0  0  0  0  0  0  0  0  0
    4.5124    1.6499    0.0000 H   0  0  0  0  0  0  0  0  0  0  0  0
   27.2134   -5.6103    0.0000 H   0  0  0  0  0  0  0  0  0  0  0  0
   28.0794   -5.7475    0.0000 H   0  0  0  0  0  0  0  0  0  0  0  0
   28.2166   -4.8814    0.0000 H   0  0  0  0  0  0  0  0  0  0  0  0
    5.9699    3.6761    0.0000 H   0  0  0  0  0  0  0  0  0  0  0  0
    4.1196    4.1710    0.0000 H   0  0  0  0  0  0  0  0  0  0  0  0
    2.0703    4.4282    0.0000 H   0  0  0  0  0  0  0  0  0  0  0  0
    3.0677    5.3748    0.0000 H   0  0  0  0  0  0  0  0  0  0  0  0
    2.3323    5.8523    0.0000 H   0  0  0  0  0  0  0  0  0  0  0  0
    1.8548    5.1170    0.0000 H   0  0  0  0  0  0  0  0  0  0  0  0
  1  8  1  0  0  0  0
  1 12  1  0  0  0  0
  2  9  1  0  0  0  0
  2 13  1  0  0  0  0
 16  3  1  1  0  0  0
  3 67  1  0  0  0  0
 17  4  1  1  0  0  0
  4 68  1  0  0  0  0
 36  5  1  1  0  0  0
  5105  1  0  0  0  0
  6 42  1  0  0  0  0
  6 43  1  0  0  0  0
  7 43  2  0  0  0  0
  8  9  1  0  0  0  0
  8 10  1  0  0  0  0
  8 45  1  6  0  0  0
  9 11  1  0  0  0  0
  9 46  1  1  0  0  0
 10 14  1  0  0  0  0
 10 47  1  0  0  0  0
 10 48  1  0  0  0  0
 11 15  1  0  0  0  0
 11 49  1  0  0  0  0
 11 50  1  0  0  0  0
 12 14  1  0  0  0  0
 12 16  1  0  0  0  0
 12 51  1  1  0  0  0
 13 15  1  0  0  0  0
 13 17  1  0  0  0  0
 13 52  1  6  0  0  0
 14 53  1  0  0  0  0
 14 54  1  0  0  0  0
 15 55  1  0  0  0  0
 15 56  1  0  0  0  0
 16 18  1  0  0  0  0
 16 57  1  0  0  0  0
 17 19  1  0  0  0  0
 17 58  1  0  0  0  0
 18 20  1  0  0  0  0
 18 59  1  0  0  0  0
 18 60  1  0  0  0  0
 19 21  1  0  0  0  0
 19 61  1  0  0  0  0
 19 62  1  0  0  0  0
 20 22  1  0  0  0  0
 20 63  1  0  0  0  0
 20 64  1  0  0  0  0
 21 23  1  0  0  0  0
 21 65  1  0  0  0  0
 21 66  1  0  0  0  0
 22 24  1  0  0  0  0
 22 69  1  0  0  0  0
 22 70  1  0  0  0  0
 23 25  1  0  0  0  0
 23 71  1  0  0  0  0
 23 72  1  0  0  0  0
 24 26  1  0  0  0  0
 24 73  1  0  0  0  0
 24 74  1  0  0  0  0
 25 27  1  0  0  0  0
 25 75  1  0  0  0  0
 25 76  1  0  0  0  0
 26 28  1  0  0  0  0
 26 77  1  0  0  0  0
 26 78  1  0  0  0  0
 27 29  1  0  0  0  0
 27 79  1  0  0  0  0
 27 80  1  0  0  0  0
 28 30  1  0  0  0  0
 28 81  1  0  0  0  0
 28 82  1  0  0  0  0
 29 32  1  0  0  0  0
 29 83  1  0  0  0  0
 29 84  1  0  0  0  0
 30 31  1  0  0  0  0
 30 85  1  0  0  0  0
 30 86  1  0  0  0  0
 31 33  1  0  0  0  0
 31 87  1  0  0  0  0
 31 88  1  0  0  0  0
 32 34  1  0  0  0  0
 32 89  1  0  0  0  0
 32 90  1  0  0  0  0
 33 35  1  0  0  0  0
 33 91  1  0  0  0  0
 33 92  1  0  0  0  0
 34 37  1  0  0  0  0
 34 93  1  0  0  0  0
 34 94  1  0  0  0  0
 35 36  1  0  0  0  0
 35 95  1  0  0  0  0
 35 96  1  0  0  0  0
 36 38  1  0  0  0  0
 36 97  1  0  0  0  0
 37 40  1  0  0  0  0
 37 98  1  0  0  0  0
 37 99  1  0  0  0  0
 38 39  1  0  0  0  0
 38100  1  0  0  0  0
 38101  1  0  0  0  0
 39 41  2  0  0  0  0
 39 43  1  0  0  0  0
 40102  1  0  0  0  0
 40103  1  0  0  0  0
 40104  1  0  0  0  0
 41 42  1  0  0  0  0
 41106  1  0  0  0  0
 42 44  1  0  0  0  0
 42107  1  0  0  0  0
 44108  1  0  0  0  0
 44109  1  0  0  0  0
 44110  1  0  0  0  0
M  END
> <PUBCHEM_COMPOUND_CID>
5459105

> <PUBCHEM_COMPOUND_CANONICALIZED>
1

> <PUBCHEM_CACTVS_COMPLEXITY>
801

> <PUBCHEM_CACTVS_HBOND_ACCEPTOR>
7

> <PUBCHEM_CACTVS_HBOND_DONOR>
3

> <PUBCHEM_CACTVS_ROTATABLE_BOND>
25

> <PUBCHEM_CACTVS_SUBSKEYS>
AAADcfB8OAAAAAAAAAAAAAAAAAAAASJEAAAAAAAAAAAAAAAAAAAAGgAACAAADBSggAICCAAABgCIAiDSCAAAAAAgAAAACAEAAEgBFBIAIQACUAAEwAALIYPK6KyAAAAAAAAAAAAAAAAAAAAAAAAAAAAAAA==

> <PUBCHEM_IUPAC_OPENEYE_NAME>
4-[(2S,13S)-2,13-dihydroxy-13-[(2S,5S)-5-[(2S,5S)-5-[(1R)-1-hydroxyundecyl]tetrahydrofuran-2-yl]tetrahydrofuran-2-yl]tridecyl]-2-methyl-2H-furan-5-one

> <PUBCHEM_IUPAC_CAS_NAME>
4-[(2S,13S)-2,13-dihydroxy-13-[(2S,5S)-5-[(2S,5S)-5-[(1R)-1-hydroxyundecyl]-2-oxolanyl]-2-oxolanyl]tridecyl]-2-methyl-2H-furan-5-one

> <PUBCHEM_IUPAC_NAME_MARKUP>
4-[(2<I>S</I>,13<I>S</I>)-2,13-dihydroxy-13-[(2<I>S</I>,5<I>S</I>)-5-[(2<I>S</I>,5<I>S</I>)-5-[(1<I>R</I>)-1-hydroxyundecyl]oxolan-2-yl]oxolan-2-yl]tridecyl]-2-methyl-2<I>H</I>-furan-5-one

> <PUBCHEM_IUPAC_NAME>
4-[(2S,13S)-2,13-dihydroxy-13-[(2S,5S)-5-[(2S,5S)-5-[(1R)-1-hydroxyundecyl]oxolan-2-yl]oxolan-2-yl]tridecyl]-2-methyl-2H-furan-5-one

> <PUBCHEM_IUPAC_SYSTEMATIC_NAME>
4-[(2S,13S)-2,13-bis(oxidanyl)-13-[(2S,5S)-5-[(2S,5S)-5-[(1R)-1-oxidanylundecyl]oxolan-2-yl]oxolan-2-yl]tridecyl]-2-methyl-2H-furan-5-one

> <PUBCHEM_IUPAC_TRADITIONAL_NAME>
4-[(2S,13S)-2,13-dihydroxy-13-[(2S,5S)-5-[(2S,5S)-5-[(1R)-1-hydroxyundecyl]tetrahydrofuran-2-yl]tetrahydrofuran-2-yl]tridecyl]-2-methyl-2H-furan-5-one

> <PUBCHEM_IUPAC_INCHI>
InChI=1S/C37H66O7/c1-3-4-5-6-7-11-14-17-20-31(39)33-22-24-35(43-33)36-25-23-34(44-36)32(40)21-18-15-12-9-8-10-13-16-19-30(38)27-29-26-28(2)42-37(29)41/h26,28,30-36,38-40H,3-25,27H2,1-2H3/t28?,30-,31+,32-,33-,34-,35-,36-/m0/s1

> <PUBCHEM_IUPAC_INCHIKEY>
MBABCNBNDNGODA-TVIWBYDISA-N

> <PUBCHEM_XLOGP3_AA>
9.7

> <PUBCHEM_EXACT_MASS>
622.480854

> <PUBCHEM_MOLECULAR_FORMULA>
C37H66O7

> <PUBCHEM_MOLECULAR_WEIGHT>
622.9

> <PUBCHEM_OPENEYE_CAN_SMILES>
CCCCCCCCCCC(C1CCC(O1)C2CCC(O2)C(CCCCCCCCCCC(CC3=CC(OC3=O)C)O)O)O

> <PUBCHEM_OPENEYE_ISO_SMILES>
CCCCCCCCCC[C@H]([C@@H]1CC[C@H](O1)[C@@H]2CC[C@H](O2)[C@H](CCCCCCCCCC[C@@H](CC3=CC(OC3=O)C)O)O)O

> <PUBCHEM_CACTVS_TPSA>
105

> <PUBCHEM_MONOISOTOPIC_WEIGHT>
622.480854

> <PUBCHEM_TOTAL_CHARGE>
0

> <PUBCHEM_HEAVY_ATOM_COUNT>
44

> <PUBCHEM_ATOM_DEF_STEREO_COUNT>
7

> <PUBCHEM_ATOM_UDEF_STEREO_COUNT>
1

> <PUBCHEM_BOND_DEF_STEREO_COUNT>
0

> <PUBCHEM_BOND_UDEF_STEREO_COUNT>
0

> <PUBCHEM_ISOTOPIC_ATOM_COUNT>
0

> <PUBCHEM_COMPONENT_COUNT>
1

> <PUBCHEM_CACTVS_TAUTO_COUNT>
-1

> <PUBCHEM_COORDINATE_TYPE>
1
5
255

> <PUBCHEM_BONDANNOTATIONS>
12  51  5
13  52  6
16  3  5
17  4  5
42  44  3
36  5  5
8  45  6
9  46  5

$$$$
5459077
  -OEChem-04052116402D

 54 56  0     1  0  0  0  0  0999 V2000
    6.3981   -1.9370    0.0000 O   0  0  0  0  0  0  0  0  0  0  0  0
    2.9340    1.0630    0.0000 O   0  0  0  0  0  0  0  0  0  0  0  0
    3.8000   -0.4370    0.0000 C   0  0  1  0  0  0  0  0  0  0  0  0
    3.8000   -1.4370    0.0000 C   0  0  3  0  0  0  0  0  0  0  0  0
    4.6660    0.0630    0.0000 C   0  0  3  0  0  0  0  0  0  0  0  0
    2.9061   -1.9717    0.0000 C   0  0  0  0  0  0  0  0  0  0  0  0
    2.9061    0.0976    0.0000 C   0  0  0  0  0  0  0  0  0  0  0  0
    4.6660   -1.9370    0.0000 C   0  0  0  0  0  0  0  0  0  0  0  0
    5.5321   -0.4370    0.0000 C   0  0  0  0  0  0  0  0  0  0  0  0
    2.0000   -1.4578    0.0000 C   0  0  0  0  0  0  0  0  0  0  0  0
    2.0000   -0.4162    0.0000 C   0  0  0  0  0  0  0  0  0  0  0  0
    5.5321   -1.4370    0.0000 C   0  0  3  0  0  0  0  0  0  0  0  0
    4.6500    1.1045    0.0000 C   0  0  0  0  0  0  0  0  0  0  0  0
    3.8000    0.5630    0.0000 C   0  0  0  0  0  0  0  0  0  0  0  0
    5.5480    1.6322    0.0000 C   0  0  0  0  0  0  0  0  0  0  0  0
    2.4161   -2.8434    0.0000 C   0  0  0  0  0  0  0  0  0  0  0  0
    3.4160   -2.8319    0.0000 C   0  0  0  0  0  0  0  0  0  0  0  0
    6.4501    1.1114    0.0000 C   0  0  2  0  0  0  0  0  0  0  0  0
    6.4421    0.0698    0.0000 C   0  0  0  0  0  0  0  0  0  0  0  0
    7.4501    1.1076    0.0000 C   0  0  0  0  0  0  0  0  0  0  0  0
    6.9534    1.9755    0.0000 C   0  0  0  0  0  0  0  0  0  0  0  0
    6.4568    2.8434    0.0000 C   0  0  0  0  0  0  0  0  0  0  0  0
    3.8048   -2.0570    0.0000 H   0  0  0  0  0  0  0  0  0  0  0  0
    5.2006    0.3771    0.0000 H   0  0  0  0  0  0  0  0  0  0  0  0
    3.3107    0.5674    0.0000 H   0  0  0  0  0  0  0  0  0  0  0  0
    2.5124    0.5766    0.0000 H   0  0  0  0  0  0  0  0  0  0  0  0
    4.2675   -2.4120    0.0000 H   0  0  0  0  0  0  0  0  0  0  0  0
    5.0646   -2.4120    0.0000 H   0  0  0  0  0  0  0  0  0  0  0  0
    1.3891   -1.3518    0.0000 H   0  0  0  0  0  0  0  0  0  0  0  0
    1.7909   -2.0415    0.0000 H   0  0  0  0  0  0  0  0  0  0  0  0
    1.7909    0.1675    0.0000 H   0  0  0  0  0  0  0  0  0  0  0  0
    1.3891   -0.5223    0.0000 H   0  0  0  0  0  0  0  0  0  0  0  0
    5.5321   -2.0570    0.0000 H   0  0  0  0  0  0  0  0  0  0  0  0
    4.4319    1.6849    0.0000 H   0  0  0  0  0  0  0  0  0  0  0  0
    4.0408    0.9890    0.0000 H   0  0  0  0  0  0  0  0  0  0  0  0
    4.4106    0.4553    0.0000 H   0  0  0  0  0  0  0  0  0  0  0  0
    4.0121    1.1456    0.0000 H   0  0  0  0  0  0  0  0  0  0  0  0
    5.9453    2.1082    0.0000 H   0  0  0  0  0  0  0  0  0  0  0  0
    5.1470    2.1051    0.0000 H   0  0  0  0  0  0  0  0  0  0  0  0
    1.8756   -2.5397    0.0000 H   0  0  0  0  0  0  0  0  0  0  0  0
    2.1123   -3.3839    0.0000 H   0  0  0  0  0  0  0  0  0  0  0  0
    2.9566   -3.1472    0.0000 H   0  0  0  0  0  0  0  0  0  0  0  0
    2.8827   -3.1481    0.0000 H   0  0  0  0  0  0  0  0  0  0  0  0
    3.7322   -3.3652    0.0000 H   0  0  0  0  0  0  0  0  0  0  0  0
    3.9494   -2.5157    0.0000 H   0  0  0  0  0  0  0  0  0  0  0  0
    6.9754   -0.2464    0.0000 H   0  0  0  0  0  0  0  0  0  0  0  0
    6.3981   -2.5570    0.0000 H   0  0  0  0  0  0  0  0  0  0  0  0
    7.4477    0.4876    0.0000 H   0  0  0  0  0  0  0  0  0  0  0  0
    8.0701    1.1052    0.0000 H   0  0  0  0  0  0  0  0  0  0  0  0
    7.4525    1.7276    0.0000 H   0  0  0  0  0  0  0  0  0  0  0  0
    2.9340    1.6830    0.0000 H   0  0  0  0  0  0  0  0  0  0  0  0
    7.5734    1.9731    0.0000 H   0  0  0  0  0  0  0  0  0  0  0  0
    6.7688    3.3792    0.0000 H   0  0  0  0  0  0  0  0  0  0  0  0
    5.8368    2.8458    0.0000 H   0  0  0  0  0  0  0  0  0  0  0  0
  1 12  1  0  0  0  0
  1 47  1  0  0  0  0
  2 14  1  0  0  0  0
  2 51  1  0  0  0  0
  3  4  1  0  0  0  0
  3  5  1  0  0  0  0
  3  7  1  0  0  0  0
  3 14  1  1  0  0  0
  4  6  1  0  0  0  0
  4  8  1  0  0  0  0
  4 23  1  0  0  0  0
  5  9  1  0  0  0  0
  5 13  1  0  0  0  0
  5 24  1  0  0  0  0
  6 10  1  0  0  0  0
  6 16  1  0  0  0  0
  6 17  1  0  0  0  0
  7 11  1  0  0  0  0
  7 25  1  0  0  0  0
  7 26  1  0  0  0  0
  8 12  1  0  0  0  0
  8 27  1  0  0  0  0
  8 28  1  0  0  0  0
  9 12  1  0  0  0  0
  9 19  2  0  0  0  0
 10 11  1  0  0  0  0
 10 29  1  0  0  0  0
 10 30  1  0  0  0  0
 11 31  1  0  0  0  0
 11 32  1  0  0  0  0
 12 33  1  0  0  0  0
 13 15  1  0  0  0  0
 13 34  1  0  0  0  0
 13 35  1  0  0  0  0
 14 36  1  0  0  0  0
 14 37  1  0  0  0  0
 15 18  1  0  0  0  0
 15 38  1  0  0  0  0
 15 39  1  0  0  0  0
 16 40  1  0  0  0  0
 16 41  1  0  0  0  0
 16 42  1  0  0  0  0
 17 43  1  0  0  0  0
 17 44  1  0  0  0  0
 17 45  1  0  0  0  0
 18 19  1  0  0  0  0
 18 20  1  1  0  0  0
 18 21  1  0  0  0  0
 19 46  1  0  0  0  0
 20 48  1  0  0  0  0
 20 49  1  0  0  0  0
 20 50  1  0  0  0  0
 21 22  2  0  0  0  0
 21 52  1  0  0  0  0
 22 53  1  0  0  0  0
 22 54  1  0  0  0  0
M  END
> <PUBCHEM_COMPOUND_CID>
5459077

> <PUBCHEM_COMPOUND_CANONICALIZED>
1

> <PUBCHEM_CACTVS_COMPLEXITY>
492

> <PUBCHEM_CACTVS_HBOND_ACCEPTOR>
2

> <PUBCHEM_CACTVS_HBOND_DONOR>
2

> <PUBCHEM_CACTVS_ROTATABLE_BOND>
2

> <PUBCHEM_CACTVS_SUBSKEYS>
AAADcfB4MAAAAAAAAAAAAAAAAAAAAAAAAAAwYIAAAAAAAADAAAAAGgAACAAADxSggAICAAAAAgCAAiBCAAAAAAAgAAAICAAAAAgAFAIAAQAAUAAEgAAIEAOA4PQPgAAAAAAAAABAAAYAACAAAAAAAAAAAA==

> <PUBCHEM_IUPAC_OPENEYE_NAME>
(4aR,7R)-4a-(hydroxymethyl)-1,1,7-trimethyl-7-vinyl-3,4,4b,5,6,9,10,10a-octahydro-2H-phenanthren-9-ol

> <PUBCHEM_IUPAC_CAS_NAME>
(4aR,7R)-7-ethenyl-4a-(hydroxymethyl)-1,1,7-trimethyl-3,4,4b,5,6,9,10,10a-octahydro-2H-phenanthren-9-ol

> <PUBCHEM_IUPAC_NAME_MARKUP>
(4<I>a</I><I>R</I>,7<I>R</I>)-7-ethenyl-4<I>a</I>-(hydroxymethyl)-1,1,7-trimethyl-3,4,4<I>b</I>,5,6,9,10,10<I>a</I>-octahydro-2<I>H</I>-phenanthren-9-ol

> <PUBCHEM_IUPAC_NAME>
(4aR,7R)-7-ethenyl-4a-(hydroxymethyl)-1,1,7-trimethyl-3,4,4b,5,6,9,10,10a-octahydro-2H-phenanthren-9-ol

> <PUBCHEM_IUPAC_SYSTEMATIC_NAME>
(4aR,7R)-7-ethenyl-4a-(hydroxymethyl)-1,1,7-trimethyl-3,4,4b,5,6,9,10,10a-octahydro-2H-phenanthren-9-ol

> <PUBCHEM_IUPAC_TRADITIONAL_NAME>
(4aR,7R)-1,1,7-trimethyl-4a-methylol-7-vinyl-3,4,4b,5,6,9,10,10a-octahydro-2H-phenanthren-9-ol

> <PUBCHEM_IUPAC_INCHI>
InChI=1S/C20H32O2/c1-5-19(4)10-7-15-14(12-19)16(22)11-17-18(2,3)8-6-9-20(15,17)13-21/h5,12,15-17,21-22H,1,6-11,13H2,2-4H3/t15?,16?,17?,19-,20-/m0/s1

> <PUBCHEM_IUPAC_INCHIKEY>
LLFMTZAPZGDWMG-GTSVPISWSA-N

> <PUBCHEM_XLOGP3_AA>
4.3

> <PUBCHEM_EXACT_MASS>
304.24023

> <PUBCHEM_MOLECULAR_FORMULA>
C20H32O2

> <PUBCHEM_MOLECULAR_WEIGHT>
304.5

> <PUBCHEM_OPENEYE_CAN_SMILES>
CC1(CCCC2(C1CC(C3=CC(CCC32)(C)C=C)O)CO)C

> <PUBCHEM_OPENEYE_ISO_SMILES>
C[C@@]1(CCC2C(=C1)C(CC3[C@@]2(CCCC3(C)C)CO)O)C=C

> <PUBCHEM_CACTVS_TPSA>
40.5

> <PUBCHEM_MONOISOTOPIC_WEIGHT>
304.24023

> <PUBCHEM_TOTAL_CHARGE>
0

> <PUBCHEM_HEAVY_ATOM_COUNT>
22

> <PUBCHEM_ATOM_DEF_STEREO_COUNT>
2

> <PUBCHEM_ATOM_UDEF_STEREO_COUNT>
3

> <PUBCHEM_BOND_DEF_STEREO_COUNT>
0

> <PUBCHEM_BOND_UDEF_STEREO_COUNT>
0

> <PUBCHEM_ISOTOPIC_ATOM_COUNT>
0

> <PUBCHEM_COMPONENT_COUNT>
1

> <PUBCHEM_CACTVS_TAUTO_COUNT>
-1

> <PUBCHEM_COORDINATE_TYPE>
1
5
255

> <PUBCHEM_BONDANNOTATIONS>
12  1  3
18  20  5
3  14  5
4  8  3
5  13  3

$$$$
5386397
  -OEChem-04052116402D

 43 44  0     0  0  0  0  0  0999 V2000
    4.5981   -4.2500    0.0000 O   0  0  0  0  0  0  0  0  0  0  0  0
    2.8660   -3.2500    0.0000 O   0  0  0  0  0  0  0  0  0  0  0  0
    6.3301   -3.2500    0.0000 O   0  0  0  0  0  0  0  0  0  0  0  0
    5.4641    4.2500    0.0000 O   0  0  0  0  0  0  0  0  0  0  0  0
    7.1962    3.2500    0.0000 O   0  0  0  0  0  0  0  0  0  0  0  0
    4.5981   -1.2500    0.0000 C   0  0  0  0  0  0  0  0  0  0  0  0
    4.5981   -3.2500    0.0000 C   0  0  0  0  0  0  0  0  0  0  0  0
    3.7320   -2.7500    0.0000 C   0  0  0  0  0  0  0  0  0  0  0  0
    5.4641   -2.7500    0.0000 C   0  0  0  0  0  0  0  0  0  0  0  0
    3.7320   -1.7500    0.0000 C   0  0  0  0  0  0  0  0  0  0  0  0
    5.4641   -1.7500    0.0000 C   0  0  0  0  0  0  0  0  0  0  0  0
    4.5981   -0.2500    0.0000 C   0  0  0  0  0  0  0  0  0  0  0  0
    5.4641    1.2500    0.0000 C   0  0  0  0  0  0  0  0  0  0  0  0
    5.4641    0.2500    0.0000 C   0  0  0  0  0  0  0  0  0  0  0  0
    6.3301    1.7500    0.0000 C   0  0  0  0  0  0  0  0  0  0  0  0
    4.5981    1.7500    0.0000 C   0  0  0  0  0  0  0  0  0  0  0  0
    6.3301    2.7500    0.0000 C   0  0  0  0  0  0  0  0  0  0  0  0
    5.4641    3.2500    0.0000 C   0  0  0  0  0  0  0  0  0  0  0  0
    4.5981    2.7500    0.0000 C   0  0  0  0  0  0  0  0  0  0  0  0
    3.7320   -4.7500    0.0000 C   0  0  0  0  0  0  0  0  0  0  0  0
    2.0000   -2.7500    0.0000 C   0  0  0  0  0  0  0  0  0  0  0  0
    7.1962   -2.7500    0.0000 C   0  0  0  0  0  0  0  0  0  0  0  0
    4.5981    4.7500    0.0000 C   0  0  0  0  0  0  0  0  0  0  0  0
    3.1951   -1.4400    0.0000 H   0  0  0  0  0  0  0  0  0  0  0  0
    6.0010   -1.4400    0.0000 H   0  0  0  0  0  0  0  0  0  0  0  0
    4.0611    0.0600    0.0000 H   0  0  0  0  0  0  0  0  0  0  0  0
    6.0010   -0.0600    0.0000 H   0  0  0  0  0  0  0  0  0  0  0  0
    6.8671    1.4400    0.0000 H   0  0  0  0  0  0  0  0  0  0  0  0
    4.0611    1.4400    0.0000 H   0  0  0  0  0  0  0  0  0  0  0  0
    4.0611    3.0600    0.0000 H   0  0  0  0  0  0  0  0  0  0  0  0
    3.4220   -4.2131    0.0000 H   0  0  0  0  0  0  0  0  0  0  0  0
    3.1951   -5.0600    0.0000 H   0  0  0  0  0  0  0  0  0  0  0  0
    4.0420   -5.2869    0.0000 H   0  0  0  0  0  0  0  0  0  0  0  0
    2.3100   -2.2131    0.0000 H   0  0  0  0  0  0  0  0  0  0  0  0
    1.4631   -2.4400    0.0000 H   0  0  0  0  0  0  0  0  0  0  0  0
    1.6900   -3.2869    0.0000 H   0  0  0  0  0  0  0  0  0  0  0  0
    7.5062   -3.2869    0.0000 H   0  0  0  0  0  0  0  0  0  0  0  0
    7.7331   -2.4400    0.0000 H   0  0  0  0  0  0  0  0  0  0  0  0
    6.8862   -2.2131    0.0000 H   0  0  0  0  0  0  0  0  0  0  0  0
    7.7331    2.9400    0.0000 H   0  0  0  0  0  0  0  0  0  0  0  0
    4.9081    5.2869    0.0000 H   0  0  0  0  0  0  0  0  0  0  0  0
    4.0611    5.0600    0.0000 H   0  0  0  0  0  0  0  0  0  0  0  0
    4.2881    4.2131    0.0000 H   0  0  0  0  0  0  0  0  0  0  0  0
  1  7  1  0  0  0  0
  1 20  1  0  0  0  0
  2  8  1  0  0  0  0
  2 21  1  0  0  0  0
  3  9  1  0  0  0  0
  3 22  1  0  0  0  0
  4 18  1  0  0  0  0
  4 23  1  0  0  0  0
  5 17  1  0  0  0  0
  5 40  1  0  0  0  0
  6 10  2  0  0  0  0
  6 11  1  0  0  0  0
  6 12  1  0  0  0  0
  7  8  2  0  0  0  0
  7  9  1  0  0  0  0
  8 10  1  0  0  0  0
  9 11  2  0  0  0  0
 10 24  1  0  0  0  0
 11 25  1  0  0  0  0
 12 14  2  0  0  0  0
 12 26  1  0  0  0  0
 13 14  1  0  0  0  0
 13 15  2  0  0  0  0
 13 16  1  0  0  0  0
 14 27  1  0  0  0  0
 15 17  1  0  0  0  0
 15 28  1  0  0  0  0
 16 19  2  0  0  0  0
 16 29  1  0  0  0  0
 17 18  2  0  0  0  0
 18 19  1  0  0  0  0
 19 30  1  0  0  0  0
 20 31  1  0  0  0  0
 20 32  1  0  0  0  0
 20 33  1  0  0  0  0
 21 34  1  0  0  0  0
 21 35  1  0  0  0  0
 21 36  1  0  0  0  0
 22 37  1  0  0  0  0
 22 38  1  0  0  0  0
 22 39  1  0  0  0  0
 23 41  1  0  0  0  0
 23 42  1  0  0  0  0
 23 43  1  0  0  0  0
M  END
> <PUBCHEM_COMPOUND_CID>
5386397

> <PUBCHEM_COMPOUND_CANONICALIZED>
1

> <PUBCHEM_CACTVS_COMPLEXITY>
358

> <PUBCHEM_CACTVS_HBOND_ACCEPTOR>
5

> <PUBCHEM_CACTVS_HBOND_DONOR>
1

> <PUBCHEM_CACTVS_ROTATABLE_BOND>
6

> <PUBCHEM_CACTVS_SUBSKEYS>
AAADceB4OAAAAAAAAAAAAAAAAAAAAAAAAAAwYAAAAAAAAAABQAAAGgAACAAADASAmAIyBoAABgCAAiBCAAACCAAgIAAIiAAGiIgNJyKGMRqAcCMlwBULuAeA4BwOIAABCAAAQABAAAIQAACAAAAAAAAAAA==

> <PUBCHEM_IUPAC_OPENEYE_NAME>
2-methoxy-5-[(E)-2-(3,4,5-trimethoxyphenyl)vinyl]phenol

> <PUBCHEM_IUPAC_CAS_NAME>
2-methoxy-5-[(E)-2-(3,4,5-trimethoxyphenyl)ethenyl]phenol

> <PUBCHEM_IUPAC_NAME_MARKUP>
2-methoxy-5-[(<I>E</I>)-2-(3,4,5-trimethoxyphenyl)ethenyl]phenol

> <PUBCHEM_IUPAC_NAME>
2-methoxy-5-[(E)-2-(3,4,5-trimethoxyphenyl)ethenyl]phenol

> <PUBCHEM_IUPAC_SYSTEMATIC_NAME>
2-methoxy-5-[(E)-2-(3,4,5-trimethoxyphenyl)ethenyl]phenol

> <PUBCHEM_IUPAC_TRADITIONAL_NAME>
2-methoxy-5-[(E)-2-(3,4,5-trimethoxyphenyl)vinyl]phenol

> <PUBCHEM_IUPAC_INCHI>
InChI=1S/C18H20O5/c1-20-15-8-7-12(9-14(15)19)5-6-13-10-16(21-2)18(23-4)17(11-13)22-3/h5-11,19H,1-4H3/b6-5+

> <PUBCHEM_IUPAC_INCHIKEY>
HVXBOLULGPECHP-AATRIKPKSA-N

> <PUBCHEM_XLOGP3_AA>
3.7

> <PUBCHEM_EXACT_MASS>
316.131074

> <PUBCHEM_MOLECULAR_FORMULA>
C18H20O5

> <PUBCHEM_MOLECULAR_WEIGHT>
316.3

> <PUBCHEM_OPENEYE_CAN_SMILES>
COC1=C(C=C(C=C1)C=CC2=CC(=C(C(=C2)OC)OC)OC)O

> <PUBCHEM_OPENEYE_ISO_SMILES>
COC1=C(C=C(C=C1)/C=C/C2=CC(=C(C(=C2)OC)OC)OC)O

> <PUBCHEM_CACTVS_TPSA>
57.2

> <PUBCHEM_MONOISOTOPIC_WEIGHT>
316.131074

> <PUBCHEM_TOTAL_CHARGE>
0

> <PUBCHEM_HEAVY_ATOM_COUNT>
23

> <PUBCHEM_ATOM_DEF_STEREO_COUNT>
0

> <PUBCHEM_ATOM_UDEF_STEREO_COUNT>
0

> <PUBCHEM_BOND_DEF_STEREO_COUNT>
1

> <PUBCHEM_BOND_UDEF_STEREO_COUNT>
0

> <PUBCHEM_ISOTOPIC_ATOM_COUNT>
0

> <PUBCHEM_COMPONENT_COUNT>
1

> <PUBCHEM_CACTVS_TAUTO_COUNT>
-1

> <PUBCHEM_COORDINATE_TYPE>
1
5
255

> <PUBCHEM_BONDANNOTATIONS>
13  15  8
13  16  8
15  17  8
16  19  8
17  18  8
18  19  8
6  10  8
6  11  8
7  8  8
7  9  8
8  10  8
9  11  8

$$$$
5375199
  -OEChem-04052116402D

 39 39  0     1  0  0  0  0  0999 V2000
    3.6200    0.2010    0.0000 O   0  0  0  0  0  0  0  0  0  0  0  0
    4.1200   -3.6651    0.0000 O   0  0  0  0  0  0  0  0  0  0  0  0
    2.6200    3.6651    0.0000 O   0  0  0  0  0  0  0  0  0  0  0  0
    2.6200    1.9330    0.0000 O   0  0  0  0  0  0  0  0  0  0  0  0
    3.2540   -1.1651    0.0000 C   0  0  0  0  0  0  0  0  0  0  0  0
    4.1200   -0.6651    0.0000 C   0  0  3  0  0  0  0  0  0  0  0  0
    3.2540   -2.1651    0.0000 C   0  0  0  0  0  0  0  0  0  0  0  0
    4.9860   -1.1651    0.0000 C   0  0  0  0  0  0  0  0  0  0  0  0
    2.2540   -1.1651    0.0000 C   0  0  0  0  0  0  0  0  0  0  0  0
    2.4879   -0.5223    0.0000 C   0  0  0  0  0  0  0  0  0  0  0  0
    4.1200   -2.6651    0.0000 C   0  0  0  0  0  0  0  0  0  0  0  0
    4.6200    0.2010    0.0000 C   0  0  0  0  0  0  0  0  0  0  0  0
    4.9860   -2.1651    0.0000 C   0  0  0  0  0  0  0  0  0  0  0  0
    5.8520   -0.6651    0.0000 C   0  0  0  0  0  0  0  0  0  0  0  0
    4.1200    1.0670    0.0000 C   0  0  0  0  0  0  0  0  0  0  0  0
    4.6200    1.9330    0.0000 C   0  0  0  0  0  0  0  0  0  0  0  0
    5.6200    1.9330    0.0000 C   0  0  0  0  0  0  0  0  0  0  0  0
    4.1200    2.7990    0.0000 C   0  0  0  0  0  0  0  0  0  0  0  0
    3.1200    2.7990    0.0000 C   0  0  0  0  0  0  0  0  0  0  0  0
    2.6434   -2.0574    0.0000 H   0  0  0  0  0  0  0  0  0  0  0  0
    3.0419   -2.7477    0.0000 H   0  0  0  0  0  0  0  0  0  0  0  0
    2.2540   -0.5451    0.0000 H   0  0  0  0  0  0  0  0  0  0  0  0
    1.6340   -1.1651    0.0000 H   0  0  0  0  0  0  0  0  0  0  0  0
    2.2540   -1.7851    0.0000 H   0  0  0  0  0  0  0  0  0  0  0  0
    2.8865   -0.0473    0.0000 H   0  0  0  0  0  0  0  0  0  0  0  0
    2.0130   -0.1237    0.0000 H   0  0  0  0  0  0  0  0  0  0  0  0
    2.0894   -0.9972    0.0000 H   0  0  0  0  0  0  0  0  0  0  0  0
    5.2400    0.2010    0.0000 H   0  0  0  0  0  0  0  0  0  0  0  0
    5.5230   -2.4751    0.0000 H   0  0  0  0  0  0  0  0  0  0  0  0
    3.0000    0.2010    0.0000 H   0  0  0  0  0  0  0  0  0  0  0  0
    6.1620   -1.2020    0.0000 H   0  0  0  0  0  0  0  0  0  0  0  0
    6.3890   -0.3551    0.0000 H   0  0  0  0  0  0  0  0  0  0  0  0
    5.5420   -0.1281    0.0000 H   0  0  0  0  0  0  0  0  0  0  0  0
    3.5000    1.0670    0.0000 H   0  0  0  0  0  0  0  0  0  0  0  0
    5.6200    1.3130    0.0000 H   0  0  0  0  0  0  0  0  0  0  0  0
    6.2400    1.9330    0.0000 H   0  0  0  0  0  0  0  0  0  0  0  0
    5.6200    2.5530    0.0000 H   0  0  0  0  0  0  0  0  0  0  0  0
    4.4300    3.3360    0.0000 H   0  0  0  0  0  0  0  0  0  0  0  0
    2.0000    3.6651    0.0000 H   0  0  0  0  0  0  0  0  0  0  0  0
  1  6  1  0  0  0  0
  1 30  1  0  0  0  0
  2 11  2  0  0  0  0
  3 19  1  0  0  0  0
  3 39  1  0  0  0  0
  4 19  2  0  0  0  0
  5  6  1  0  0  0  0
  5  7  1  0  0  0  0
  5  9  1  0  0  0  0
  5 10  1  0  0  0  0
  6  8  1  0  0  0  0
  6 12  1  0  0  0  0
  7 11  1  0  0  0  0
  7 20  1  0  0  0  0
  7 21  1  0  0  0  0
  8 13  2  0  0  0  0
  8 14  1  0  0  0  0
  9 22  1  0  0  0  0
  9 23  1  0  0  0  0
  9 24  1  0  0  0  0
 10 25  1  0  0  0  0
 10 26  1  0  0  0  0
 10 27  1  0  0  0  0
 11 13  1  0  0  0  0
 12 15  2  0  0  0  0
 12 28  1  0  0  0  0
 13 29  1  0  0  0  0
 14 31  1  0  0  0  0
 14 32  1  0  0  0  0
 14 33  1  0  0  0  0
 15 16  1  0  0  0  0
 15 34  1  0  0  0  0
 16 17  1  0  0  0  0
 16 18  2  0  0  0  0
 17 35  1  0  0  0  0
 17 36  1  0  0  0  0
 17 37  1  0  0  0  0
 18 19  1  0  0  0  0
 18 38  1  0  0  0  0
M  END
> <PUBCHEM_COMPOUND_CID>
5375199

> <PUBCHEM_COMPOUND_CANONICALIZED>
1

> <PUBCHEM_CACTVS_COMPLEXITY>
494

> <PUBCHEM_CACTVS_HBOND_ACCEPTOR>
4

> <PUBCHEM_CACTVS_HBOND_DONOR>
2

> <PUBCHEM_CACTVS_ROTATABLE_BOND>
3

> <PUBCHEM_CACTVS_SUBSKEYS>
AAADceBwOAAAAAAAAAAAAAAAAAAAAAAAAAAgAAAAAAAAAAAAAAAAGgAACAAADkSAgAACCAAAAgCIAqDSCAAAAAAgAAAICAEAAEgIBBIAAQAAUAAEgAAIkQOKiAAPgAAAAAAAAAAAAAAAAAAAAAAAAAAAAA==

> <PUBCHEM_IUPAC_OPENEYE_NAME>
(2Z,4E)-5-(1-hydroxy-2,6,6-trimethyl-4-oxo-cyclohex-2-en-1-yl)-3-methyl-penta-2,4-dienoic acid

> <PUBCHEM_IUPAC_CAS_NAME>
(2Z,4E)-5-(1-hydroxy-2,6,6-trimethyl-4-oxo-1-cyclohex-2-enyl)-3-methylpenta-2,4-dienoic acid

> <PUBCHEM_IUPAC_NAME_MARKUP>
(2<I>Z</I>,4<I>E</I>)-5-(1-hydroxy-2,6,6-trimethyl-4-oxocyclohex-2-en-1-yl)-3-methylpenta-2,4-dienoic acid

> <PUBCHEM_IUPAC_NAME>
(2Z,4E)-5-(1-hydroxy-2,6,6-trimethyl-4-oxocyclohex-2-en-1-yl)-3-methylpenta-2,4-dienoic acid

> <PUBCHEM_IUPAC_SYSTEMATIC_NAME>
(2Z,4E)-3-methyl-5-(2,6,6-trimethyl-1-oxidanyl-4-oxidanylidene-cyclohex-2-en-1-yl)penta-2,4-dienoic acid

> <PUBCHEM_IUPAC_TRADITIONAL_NAME>
(2Z,4E)-5-(1-hydroxy-4-keto-2,6,6-trimethyl-cyclohex-2-en-1-yl)-3-methyl-penta-2,4-dienoic acid

> <PUBCHEM_IUPAC_INCHI>
InChI=1S/C15H20O4/c1-10(7-13(17)18)5-6-15(19)11(2)8-12(16)9-14(15,3)4/h5-8,19H,9H2,1-4H3,(H,17,18)/b6-5+,10-7-

> <PUBCHEM_IUPAC_INCHIKEY>
JLIDBLDQVAYHNE-LXGGSRJLSA-N

> <PUBCHEM_XLOGP3_AA>
1.6

> <PUBCHEM_EXACT_MASS>
264.136159

> <PUBCHEM_MOLECULAR_FORMULA>
C15H20O4

> <PUBCHEM_MOLECULAR_WEIGHT>
264.32

> <PUBCHEM_OPENEYE_CAN_SMILES>
CC1=CC(=O)CC(C1(C=CC(=CC(=O)O)C)O)(C)C

> <PUBCHEM_OPENEYE_ISO_SMILES>
CC1=CC(=O)CC(C1(/C=C/C(=C\C(=O)O)/C)O)(C)C

> <PUBCHEM_CACTVS_TPSA>
74.6

> <PUBCHEM_MONOISOTOPIC_WEIGHT>
264.136159

> <PUBCHEM_TOTAL_CHARGE>
0

> <PUBCHEM_HEAVY_ATOM_COUNT>
19

> <PUBCHEM_ATOM_DEF_STEREO_COUNT>
0

> <PUBCHEM_ATOM_UDEF_STEREO_COUNT>
1

> <PUBCHEM_BOND_DEF_STEREO_COUNT>
2

> <PUBCHEM_BOND_UDEF_STEREO_COUNT>
0

> <PUBCHEM_ISOTOPIC_ATOM_COUNT>
0

> <PUBCHEM_COMPONENT_COUNT>
1

> <PUBCHEM_CACTVS_TAUTO_COUNT>
-1

> <PUBCHEM_COORDINATE_TYPE>
1
5
255

> <PUBCHEM_BONDANNOTATIONS>
6  1  3

$$$$
5311110
  -OEChem-04052116402D

 20 19  0     1  0  0  0  0  0999 V2000
    4.5981   -1.2500    0.0000 O   0  0  0  0  0  0  0  0  0  0  0  0
    5.4641    1.2500    0.0000 O   0  0  0  0  0  0  0  0  0  0  0  0
    3.7320    1.2500    0.0000 O   0  0  0  0  0  0  0  0  0  0  0  0
    7.1962    0.2500    0.0000 O   0  0  0  0  0  0  0  0  0  0  0  0
    2.0000    0.2500    0.0000 O   0  0  0  0  0  0  0  0  0  0  0  0
    4.5981   -0.2500    0.0000 C   0  0  2  0  0  0  0  0  0  0  0  0
    5.4641    0.2500    0.0000 C   0  0  1  0  0  0  0  0  0  0  0  0
    3.7320    0.2500    0.0000 C   0  0  2  0  0  0  0  0  0  0  0  0
    6.3301   -0.2500    0.0000 C   0  0  0  0  0  0  0  0  0  0  0  0
    2.8660   -0.2500    0.0000 C   0  0  0  0  0  0  0  0  0  0  0  0
    5.1350   -0.5600    0.0000 H   0  0  0  0  0  0  0  0  0  0  0  0
    6.0010    0.5600    0.0000 H   0  0  0  0  0  0  0  0  0  0  0  0
    4.2690    0.5600    0.0000 H   0  0  0  0  0  0  0  0  0  0  0  0
    5.9316   -0.7249    0.0000 H   0  0  0  0  0  0  0  0  0  0  0  0
    6.7287   -0.7249    0.0000 H   0  0  0  0  0  0  0  0  0  0  0  0
    4.0611   -1.5600    0.0000 H   0  0  0  0  0  0  0  0  0  0  0  0
    2.8660   -0.8700    0.0000 H   0  0  0  0  0  0  0  0  0  0  0  0
    6.0010    1.5600    0.0000 H   0  0  0  0  0  0  0  0  0  0  0  0
    3.1951    1.5600    0.0000 H   0  0  0  0  0  0  0  0  0  0  0  0
    7.7331   -0.0600    0.0000 H   0  0  0  0  0  0  0  0  0  0  0  0
  6  1  1  1  0  0  0
  1 16  1  0  0  0  0
  7  2  1  6  0  0  0
  2 18  1  0  0  0  0
  8  3  1  6  0  0  0
  3 19  1  0  0  0  0
  4  9  1  0  0  0  0
  4 20  1  0  0  0  0
  5 10  2  0  0  0  0
  6  7  1  0  0  0  0
  6  8  1  0  0  0  0
  6 11  1  0  0  0  0
  7  9  1  0  0  0  0
  7 12  1  0  0  0  0
  8 10  1  0  0  0  0
  8 13  1  0  0  0  0
  9 14  1  0  0  0  0
  9 15  1  0  0  0  0
 10 17  1  0  0  0  0
M  END
> <PUBCHEM_COMPOUND_CID>
5311110

> <PUBCHEM_COMPOUND_CANONICALIZED>
1

> <PUBCHEM_CACTVS_COMPLEXITY>
104

> <PUBCHEM_CACTVS_HBOND_ACCEPTOR>
5

> <PUBCHEM_CACTVS_HBOND_DONOR>
4

> <PUBCHEM_CACTVS_ROTATABLE_BOND>
4

> <PUBCHEM_CACTVS_SUBSKEYS>
AAADccBgOAAAAAAAAAAAAAAAAAAAAAAAAAAAAAAAAAAAAAAAAAAAGgAACAAACBSggAIAAAAAAgAIAAgQgAIAAAAAAAAAAAFAAAABEBYAAAAAQAAFIAABAADKBAAAAAAAAAAAAAAAAAAAAAAAAAAAAAAAAA==

> <PUBCHEM_IUPAC_OPENEYE_NAME>
(2R,3R,4R)-2,3,4,5-tetrahydroxypentanal

> <PUBCHEM_IUPAC_CAS_NAME>
(2R,3R,4R)-2,3,4,5-tetrahydroxypentanal

> <PUBCHEM_IUPAC_NAME_MARKUP>
(2<I>R</I>,3<I>R</I>,4<I>R</I>)-2,3,4,5-tetrahydroxypentanal

> <PUBCHEM_IUPAC_NAME>
(2R,3R,4R)-2,3,4,5-tetrahydroxypentanal

> <PUBCHEM_IUPAC_SYSTEMATIC_NAME>
(2R,3R,4R)-2,3,4,5-tetrakis(oxidanyl)pentanal

> <PUBCHEM_IUPAC_TRADITIONAL_NAME>
(2R,3R,4R)-2,3,4,5-tetrahydroxyvaleraldehyde

> <PUBCHEM_IUPAC_INCHI>
InChI=1S/C5H10O5/c6-1-3(8)5(10)4(9)2-7/h1,3-5,7-10H,2H2/t3-,4+,5-/m0/s1

> <PUBCHEM_IUPAC_INCHIKEY>
PYMYPHUHKUWMLA-LMVFSUKVSA-N

> <PUBCHEM_XLOGP3>
-2.3

> <PUBCHEM_EXACT_MASS>
150.052823

> <PUBCHEM_MOLECULAR_FORMULA>
C5H10O5

> <PUBCHEM_MOLECULAR_WEIGHT>
150.13

> <PUBCHEM_OPENEYE_CAN_SMILES>
C(C(C(C(C=O)O)O)O)O

> <PUBCHEM_OPENEYE_ISO_SMILES>
C([C@H]([C@H]([C@H](C=O)O)O)O)O

> <PUBCHEM_CACTVS_TPSA>
98

> <PUBCHEM_MONOISOTOPIC_WEIGHT>
150.052823

> <PUBCHEM_TOTAL_CHARGE>
0

> <PUBCHEM_HEAVY_ATOM_COUNT>
10

> <PUBCHEM_ATOM_DEF_STEREO_COUNT>
3

> <PUBCHEM_ATOM_UDEF_STEREO_COUNT>
0

> <PUBCHEM_BOND_DEF_STEREO_COUNT>
0

> <PUBCHEM_BOND_UDEF_STEREO_COUNT>
0

> <PUBCHEM_ISOTOPIC_ATOM_COUNT>
0

> <PUBCHEM_COMPONENT_COUNT>
1

> <PUBCHEM_CACTVS_TAUTO_COUNT>
-1

> <PUBCHEM_COORDINATE_TYPE>
1
5
255

> <PUBCHEM_BONDANNOTATIONS>
6  1  5
7  2  6
8  3  6

$$$$
5281486
  -OEChem-04052116402D

 50 52  0     1  0  0  0  0  0999 V2000
    5.1482    2.7238    0.0000 O   0  0  0  0  0  0  0  0  0  0  0  0
    5.7812   -0.4847    0.0000 O   0  0  0  0  0  0  0  0  0  0  0  0
    3.1645    2.7966    0.0000 O   0  0  0  0  0  0  0  0  0  0  0  0
    4.6840   -1.9721    0.0000 O   0  0  0  0  0  0  0  0  0  0  0  0
    6.8881    3.0820    0.0000 O   0  0  0  0  0  0  0  0  0  0  0  0
    7.4789   -0.1415    0.0000 O   0  0  0  0  0  0  0  0  0  0  0  0
    4.0984   -0.2951    0.0000 C   0  0  2  0  0  0  0  0  0  0  0  0
    3.1974    0.1388    0.0000 C   0  0  2  0  0  0  0  0  0  0  0  0
    4.9994    0.1388    0.0000 C   0  0  2  0  0  0  0  0  0  0  0  0
    2.9749    1.1138    0.0000 C   0  0  1  0  0  0  0  0  0  0  0  0
    5.2219    1.1138    0.0000 C   0  0  1  0  0  0  0  0  0  0  0  0
    4.5984    1.8956    0.0000 C   0  0  1  0  0  0  0  0  0  0  0  0
    3.5984    1.8956    0.0000 C   0  0  2  0  0  0  0  0  0  0  0  0
    3.9624   -1.2798    0.0000 C   0  0  0  0  0  0  0  0  0  0  0  0
    4.9994   -0.7289    0.0000 C   0  0  0  0  0  0  0  0  0  0  0  0
    2.5124   -0.5815    0.0000 C   0  0  0  0  0  0  0  0  0  0  0  0
    6.1517    1.4655    0.0000 C   0  0  0  0  0  0  0  0  0  0  0  0
    2.0000    1.3363    0.0000 C   0  0  0  0  0  0  0  0  0  0  0  0
    2.9842   -1.4564    0.0000 C   0  0  0  0  0  0  0  0  0  0  0  0
    6.1062    2.4585    0.0000 C   0  0  0  0  0  0  0  0  0  0  0  0
    7.1449    1.5816    0.0000 C   0  0  0  0  0  0  0  0  0  0  0  0
    6.7292   -0.8032    0.0000 C   0  0  0  0  0  0  0  0  0  0  0  0
    6.9273   -1.7833    0.0000 C   0  0  0  0  0  0  0  0  0  0  0  0
    6.1775   -2.4450    0.0000 C   0  0  0  0  0  0  0  0  0  0  0  0
    7.8752   -2.1018    0.0000 C   0  0  0  0  0  0  0  0  0  0  0  0
    8.0734   -3.0820    0.0000 C   0  0  0  0  0  0  0  0  0  0  0  0
    2.3778    0.3639    0.0000 H   0  0  0  0  0  0  0  0  0  0  0  0
    5.5846    0.3436    0.0000 H   0  0  0  0  0  0  0  0  0  0  0  0
    2.7702    1.6990    0.0000 H   0  0  0  0  0  0  0  0  0  0  0  0
    5.8627    0.5553    0.0000 H   0  0  0  0  0  0  0  0  0  0  0  0
    4.1966    2.6446    0.0000 H   0  0  0  0  0  0  0  0  0  0  0  0
    2.9823    1.9650    0.0000 H   0  0  0  0  0  0  0  0  0  0  0  0
    4.7304   -1.2876    0.0000 H   0  0  0  0  0  0  0  0  0  0  0  0
    5.5580   -0.9980    0.0000 H   0  0  0  0  0  0  0  0  0  0  0  0
    5.2684   -0.1703    0.0000 H   0  0  0  0  0  0  0  0  0  0  0  0
    1.8978   -0.4993    0.0000 H   0  0  0  0  0  0  0  0  0  0  0  0
    2.1380    1.9407    0.0000 H   0  0  0  0  0  0  0  0  0  0  0  0
    1.3955    1.4742    0.0000 H   0  0  0  0  0  0  0  0  0  0  0  0
    1.8620    0.7318    0.0000 H   0  0  0  0  0  0  0  0  0  0  0  0
    2.7152   -2.0150    0.0000 H   0  0  0  0  0  0  0  0  0  0  0  0
    2.5463    2.8429    0.0000 H   0  0  0  0  0  0  0  0  0  0  0  0
    7.5152    1.0843    0.0000 H   0  0  0  0  0  0  0  0  0  0  0  0
    7.3904    2.1509    0.0000 H   0  0  0  0  0  0  0  0  0  0  0  0
    5.7673   -1.9802    0.0000 H   0  0  0  0  0  0  0  0  0  0  0  0
    5.7126   -2.8553    0.0000 H   0  0  0  0  0  0  0  0  0  0  0  0
    6.5878   -2.9099    0.0000 H   0  0  0  0  0  0  0  0  0  0  0  0
    8.3401   -1.6916    0.0000 H   0  0  0  0  0  0  0  0  0  0  0  0
    7.4657   -3.2048    0.0000 H   0  0  0  0  0  0  0  0  0  0  0  0
    8.1962   -3.6897    0.0000 H   0  0  0  0  0  0  0  0  0  0  0  0
    8.6811   -2.9591    0.0000 H   0  0  0  0  0  0  0  0  0  0  0  0
  1 12  1  0  0  0  0
  1 20  1  0  0  0  0
  9  2  1  6  0  0  0
  2 22  1  0  0  0  0
 13  3  1  1  0  0  0
  3 41  1  0  0  0  0
  4 14  2  0  0  0  0
  5 20  2  0  0  0  0
  6 22  2  0  0  0  0
  7  8  1  0  0  0  0
  7  9  1  0  0  0  0
  7 14  1  0  0  0  0
  7 15  1  1  0  0  0
  8 10  1  0  0  0  0
  8 16  1  0  0  0  0
  8 27  1  6  0  0  0
  9 11  1  0  0  0  0
  9 28  1  0  0  0  0
 10 13  1  0  0  0  0
 10 18  1  6  0  0  0
 10 29  1  0  0  0  0
 11 12  1  0  0  0  0
 11 17  1  0  0  0  0
 11 30  1  6  0  0  0
 12 13  1  0  0  0  0
 12 31  1  6  0  0  0
 13 32  1  0  0  0  0
 14 19  1  0  0  0  0
 15 33  1  0  0  0  0
 15 34  1  0  0  0  0
 15 35  1  0  0  0  0
 16 19  2  0  0  0  0
 16 36  1  0  0  0  0
 17 20  1  0  0  0  0
 17 21  2  0  0  0  0
 18 37  1  0  0  0  0
 18 38  1  0  0  0  0
 18 39  1  0  0  0  0
 19 40  1  0  0  0  0
 21 42  1  0  0  0  0
 21 43  1  0  0  0  0
 22 23  1  0  0  0  0
 23 24  1  0  0  0  0
 23 25  2  0  0  0  0
 24 44  1  0  0  0  0
 24 45  1  0  0  0  0
 24 46  1  0  0  0  0
 25 26  1  0  0  0  0
 25 47  1  0  0  0  0
 26 48  1  0  0  0  0
 26 49  1  0  0  0  0
 26 50  1  0  0  0  0
M  END
> <PUBCHEM_COMPOUND_CID>
5281486

> <PUBCHEM_COMPOUND_CANONICALIZED>
1

> <PUBCHEM_CACTVS_COMPLEXITY>
747

> <PUBCHEM_CACTVS_HBOND_ACCEPTOR>
6

> <PUBCHEM_CACTVS_HBOND_DONOR>
1

> <PUBCHEM_CACTVS_ROTATABLE_BOND>
3

> <PUBCHEM_CACTVS_SUBSKEYS>
AAADceB4OAAAAAAAAAAAAAAAAAAAASIAAAAAAAAABgAAAACQAAAAGgAACAAADxSggAICCAAABgCIAqDSCAAAAAAgAAAICAEAAEgBFBYAIQACUAAF4AALIYPK7PzPgAAAAAAAAAAAAAAAAAAAAAAAAAAAAA==

> <PUBCHEM_IUPAC_OPENEYE_NAME>
[(3aS,4R,5S,5aS,8aR,9S,9aS)-4-hydroxy-5,8a-dimethyl-1-methylene-2,8-dioxo-3a,4,5,5a,9,9a-hexahydroazuleno[6,5-b]furan-9-yl] (E)-2-methylbut-2-enoate

> <PUBCHEM_IUPAC_CAS_NAME>
(E)-2-methyl-2-butenoic acid [(3aS,4R,5S,5aS,8aR,9S,9aS)-4-hydroxy-5,8a-dimethyl-1-methylene-2,8-dioxo-3a,4,5,5a,9,9a-hexahydroazuleno[6,5-b]furan-9-yl] ester

> <PUBCHEM_IUPAC_NAME_MARKUP>
[(3<I>a</I><I>S</I>,4<I>R</I>,5<I>S</I>,5<I>a</I><I>S</I>,8<I>a</I><I>R</I>,9<I>S</I>,9<I>a</I><I>S</I>)-4-hydroxy-5,8<I>a</I>-dimethyl-1-methylidene-2,8-dioxo-3<I>a</I>,4,5,5<I>a</I>,9,9<I>a</I>-hexahydroazuleno[6,5-b]furan-9-yl] (<I>E</I>)-2-methylbut-2-enoate

> <PUBCHEM_IUPAC_NAME>
[(3aS,4R,5S,5aS,8aR,9S,9aS)-4-hydroxy-5,8a-dimethyl-1-methylidene-2,8-dioxo-3a,4,5,5a,9,9a-hexahydroazuleno[6,5-b]furan-9-yl] (E)-2-methylbut-2-enoate

> <PUBCHEM_IUPAC_SYSTEMATIC_NAME>
[(3aS,4R,5S,5aS,8aR,9S,9aS)-5,8a-dimethyl-1-methylidene-4-oxidanyl-2,8-bis(oxidanylidene)-3a,4,5,5a,9,9a-hexahydroazuleno[6,5-b]furan-9-yl] (E)-2-methylbut-2-enoate

> <PUBCHEM_IUPAC_TRADITIONAL_NAME>
(E)-2-methylbut-2-enoic acid [(3aS,4R,5S,5aS,8aR,9S,9aS)-4-hydroxy-2,8-diketo-5,8a-dimethyl-1-methylene-3a,4,5,5a,9,9a-hexahydroazuleno[6,5-b]furan-9-yl] ester

> <PUBCHEM_IUPAC_INCHI>
InChI=1S/C20H24O6/c1-6-9(2)18(23)26-17-14-11(4)19(24)25-16(14)15(22)10(3)12-7-8-13(21)20(12,17)5/h6-8,10,12,14-17,22H,4H2,1-3,5H3/b9-6+/t10-,12-,14+,15+,16-,17-,20-/m0/s1

> <PUBCHEM_IUPAC_INCHIKEY>
UQFKZAAOUCMTRM-CEGIGBEESA-N

> <PUBCHEM_XLOGP3_AA>
2.2

> <PUBCHEM_EXACT_MASS>
360.157288

> <PUBCHEM_MOLECULAR_FORMULA>
C20H24O6

> <PUBCHEM_MOLECULAR_WEIGHT>
360.4

> <PUBCHEM_OPENEYE_CAN_SMILES>
CC=C(C)C(=O)OC1C2C(C(C(C3C1(C(=O)C=C3)C)C)O)OC(=O)C2=C

> <PUBCHEM_OPENEYE_ISO_SMILES>
C/C=C(\C)/C(=O)O[C@H]1[C@H]2[C@@H]([C@@H]([C@H]([C@H]3[C@]1(C(=O)C=C3)C)C)O)OC(=O)C2=C

> <PUBCHEM_CACTVS_TPSA>
89.9

> <PUBCHEM_MONOISOTOPIC_WEIGHT>
360.157288

> <PUBCHEM_TOTAL_CHARGE>
0

> <PUBCHEM_HEAVY_ATOM_COUNT>
26

> <PUBCHEM_ATOM_DEF_STEREO_COUNT>
7

> <PUBCHEM_ATOM_UDEF_STEREO_COUNT>
0

> <PUBCHEM_BOND_DEF_STEREO_COUNT>
1

> <PUBCHEM_BOND_UDEF_STEREO_COUNT>
0

> <PUBCHEM_ISOTOPIC_ATOM_COUNT>
0

> <PUBCHEM_COMPONENT_COUNT>
1

> <PUBCHEM_CACTVS_TAUTO_COUNT>
-1

> <PUBCHEM_COORDINATE_TYPE>
1
5
255

> <PUBCHEM_BONDANNOTATIONS>
10  18  6
11  30  6
12  31  6
9  2  6
13  3  5
7  15  5
8  27  6

$$$$
4368771
  -OEChem-04052116402D

 38 39  0     0  0  0  0  0  0999 V2000
    7.9244   -0.1841    0.0000 O   0  0  0  0  0  0  0  0  0  0  0  0
   10.1456    3.8242    0.0000 O   0  0  0  0  0  0  0  0  0  0  0  0
   10.5028    2.1294    0.0000 O   0  0  0  0  0  0  0  0  0  0  0  0
    4.6783   -3.3627    0.0000 N   0  0  0  0  0  0  0  0  0  0  0  0
    7.5673    1.5107    0.0000 N   0  0  0  0  0  0  0  0  0  0  0  0
    4.9889   -0.8028    0.0000 C   0  0  0  0  0  0  0  0  0  0  0  0
    4.6783   -1.7533    0.0000 C   0  0  0  0  0  0  0  0  0  0  0  0
    5.9674   -0.5965    0.0000 C   0  0  0  0  0  0  0  0  0  0  0  0
    3.7320   -2.0580    0.0000 C   0  0  0  0  0  0  0  0  0  0  0  0
    6.2781    0.3540    0.0000 C   0  0  0  0  0  0  0  0  0  0  0  0
    3.7320   -3.0580    0.0000 C   0  0  0  0  0  0  0  0  0  0  0  0
    5.2619   -2.5580    0.0000 C   0  0  0  0  0  0  0  0  0  0  0  0
    2.8660   -1.5580    0.0000 C   0  0  0  0  0  0  0  0  0  0  0  0
    7.2566    0.5602    0.0000 C   0  0  0  0  0  0  0  0  0  0  0  0
    2.8660   -3.5580    0.0000 C   0  0  0  0  0  0  0  0  0  0  0  0
    2.0000   -2.0580    0.0000 C   0  0  0  0  0  0  0  0  0  0  0  0
    8.5458    1.7169    0.0000 C   0  0  0  0  0  0  0  0  0  0  0  0
    2.0000   -3.0580    0.0000 C   0  0  0  0  0  0  0  0  0  0  0  0
    8.8564    2.6675    0.0000 C   0  0  0  0  0  0  0  0  0  0  0  0
    9.8349    2.8737    0.0000 C   0  0  0  0  0  0  0  0  0  0  0  0
    4.9684   -0.1831    0.0000 H   0  0  0  0  0  0  0  0  0  0  0  0
    4.3751   -0.7154    0.0000 H   0  0  0  0  0  0  0  0  0  0  0  0
    5.9880   -1.2162    0.0000 H   0  0  0  0  0  0  0  0  0  0  0  0
    6.5812   -0.6839    0.0000 H   0  0  0  0  0  0  0  0  0  0  0  0
    6.2575    0.9736    0.0000 H   0  0  0  0  0  0  0  0  0  0  0  0
    5.6643    0.4413    0.0000 H   0  0  0  0  0  0  0  0  0  0  0  0
    5.8819   -2.5580    0.0000 H   0  0  0  0  0  0  0  0  0  0  0  0
    4.8709   -3.9521    0.0000 H   0  0  0  0  0  0  0  0  0  0  0  0
    2.8660   -0.9380    0.0000 H   0  0  0  0  0  0  0  0  0  0  0  0
    2.8660   -4.1780    0.0000 H   0  0  0  0  0  0  0  0  0  0  0  0
    7.1532    1.9722    0.0000 H   0  0  0  0  0  0  0  0  0  0  0  0
    8.5663    1.0973    0.0000 H   0  0  0  0  0  0  0  0  0  0  0  0
    9.1596    1.6296    0.0000 H   0  0  0  0  0  0  0  0  0  0  0  0
    1.4631   -1.7480    0.0000 H   0  0  0  0  0  0  0  0  0  0  0  0
    1.4631   -3.3680    0.0000 H   0  0  0  0  0  0  0  0  0  0  0  0
    8.8359    3.2871    0.0000 H   0  0  0  0  0  0  0  0  0  0  0  0
    8.2426    2.7548    0.0000 H   0  0  0  0  0  0  0  0  0  0  0  0
   10.7523    3.9521    0.0000 H   0  0  0  0  0  0  0  0  0  0  0  0
  1 14  2  0  0  0  0
  2 20  1  0  0  0  0
  2 38  1  0  0  0  0
  3 20  2  0  0  0  0
  4 11  1  0  0  0  0
  4 12  1  0  0  0  0
  4 28  1  0  0  0  0
  5 14  1  0  0  0  0
  5 17  1  0  0  0  0
  5 31  1  0  0  0  0
  6  7  1  0  0  0  0
  6  8  1  0  0  0  0
  6 21  1  0  0  0  0
  6 22  1  0  0  0  0
  7  9  1  0  0  0  0
  7 12  2  0  0  0  0
  8 10  1  0  0  0  0
  8 23  1  0  0  0  0
  8 24  1  0  0  0  0
  9 11  1  0  0  0  0
  9 13  2  0  0  0  0
 10 14  1  0  0  0  0
 10 25  1  0  0  0  0
 10 26  1  0  0  0  0
 11 15  2  0  0  0  0
 12 27  1  0  0  0  0
 13 16  1  0  0  0  0
 13 29  1  0  0  0  0
 15 18  1  0  0  0  0
 15 30  1  0  0  0  0
 16 18  2  0  0  0  0
 16 34  1  0  0  0  0
 17 19  1  0  0  0  0
 17 32  1  0  0  0  0
 17 33  1  0  0  0  0
 18 35  1  0  0  0  0
 19 20  1  0  0  0  0
 19 36  1  0  0  0  0
 19 37  1  0  0  0  0
M  END
> <PUBCHEM_COMPOUND_CID>
4368771

> <PUBCHEM_COMPOUND_CANONICALIZED>
1

> <PUBCHEM_CACTVS_COMPLEXITY>
346

> <PUBCHEM_CACTVS_HBOND_ACCEPTOR>
3

> <PUBCHEM_CACTVS_HBOND_DONOR>
3

> <PUBCHEM_CACTVS_ROTATABLE_BOND>
7

> <PUBCHEM_CACTVS_SUBSKEYS>
AAADceBzMAAAAAAAAAAAAAAAAAAAAWAAAAAwAAAAAAAAAFgB8AAAHgAQCAAADAjBngQ8yPLJkgCoAzX3XACCgCAxAiAI2aE4ZJgIIPrAkZGEYAhilgDIyAcYiMCOgAAAAAACAAAAAAAAAAQAAAAAAAAAAA==

> <PUBCHEM_IUPAC_OPENEYE_NAME>
3-[4-(1H-indol-3-yl)butanoylamino]propanoic acid

> <PUBCHEM_IUPAC_CAS_NAME>
3-[[4-(1H-indol-3-yl)-1-oxobutyl]amino]propanoic acid

> <PUBCHEM_IUPAC_NAME_MARKUP>
3-[4-(1<I>H</I>-indol-3-yl)butanoylamino]propanoic acid

> <PUBCHEM_IUPAC_NAME>
3-[4-(1H-indol-3-yl)butanoylamino]propanoic acid

> <PUBCHEM_IUPAC_SYSTEMATIC_NAME>
3-[4-(1H-indol-3-yl)butanoylamino]propanoic acid

> <PUBCHEM_IUPAC_TRADITIONAL_NAME>
3-[4-(1H-indol-3-yl)butanoylamino]propionic acid

> <PUBCHEM_IUPAC_INCHI>
InChI=1S/C15H18N2O3/c18-14(16-9-8-15(19)20)7-3-4-11-10-17-13-6-2-1-5-12(11)13/h1-2,5-6,10,17H,3-4,7-9H2,(H,16,18)(H,19,20)

> <PUBCHEM_IUPAC_INCHIKEY>
NHQSQRLCMSTADH-UHFFFAOYSA-N

> <PUBCHEM_XLOGP3>
1.5

> <PUBCHEM_EXACT_MASS>
274.131742

> <PUBCHEM_MOLECULAR_FORMULA>
C15H18N2O3

> <PUBCHEM_MOLECULAR_WEIGHT>
274.31

> <PUBCHEM_OPENEYE_CAN_SMILES>
C1=CC=C2C(=C1)C(=CN2)CCCC(=O)NCCC(=O)O

> <PUBCHEM_OPENEYE_ISO_SMILES>
C1=CC=C2C(=C1)C(=CN2)CCCC(=O)NCCC(=O)O

> <PUBCHEM_CACTVS_TPSA>
82.2

> <PUBCHEM_MONOISOTOPIC_WEIGHT>
274.131742

> <PUBCHEM_TOTAL_CHARGE>
0

> <PUBCHEM_HEAVY_ATOM_COUNT>
20

> <PUBCHEM_ATOM_DEF_STEREO_COUNT>
0

> <PUBCHEM_ATOM_UDEF_STEREO_COUNT>
0

> <PUBCHEM_BOND_DEF_STEREO_COUNT>
0

> <PUBCHEM_BOND_UDEF_STEREO_COUNT>
0

> <PUBCHEM_ISOTOPIC_ATOM_COUNT>
0

> <PUBCHEM_COMPONENT_COUNT>
1

> <PUBCHEM_CACTVS_TAUTO_COUNT>
-1

> <PUBCHEM_COORDINATE_TYPE>
1
5
255

> <PUBCHEM_BONDANNOTATIONS>
11  15  8
13  16  8
15  18  8
16  18  8
4  11  8
4  12  8
7  12  8
7  9  8
9  11  8
9  13  8

$$$$
3081556
  -OEChem-04052116402D

 27 24  0     0  0  0  0  0  0999 V2000
    0.8660    3.4898    0.0000 Pt  0  2  0  0  0  0  0  0  0  0  0  0
    1.7320    3.9898    0.0000 Cl  0  5  0  0  0  0  0  0  0  0  0  0
    0.0000    3.9898    0.0000 Cl  0  5  0  0  0  0  0  0  0  0  0  0
    6.2353    0.6994    0.0000 S   0  0  0  0  0  0  0  0  0  0  0  0
    6.2353    5.4392    0.0000 S   0  0  0  0  0  0  0  0  0  0  0  0
    3.7320    1.6473    0.0000 O   0  5  0  0  0  0  0  0  0  0  0  0
    3.7320    6.3871    0.0000 O   0  5  0  0  0  0  0  0  0  0  0  0
    4.2673    0.0000    0.0000 O   0  0  0  0  0  0  0  0  0  0  0  0
    4.2673    4.7398    0.0000 O   0  0  0  0  0  0  0  0  0  0  0  0
    6.7353    2.2382    0.0000 N   0  0  0  0  0  0  0  0  0  0  0  0
    6.7353    6.9780    0.0000 N   0  0  0  0  0  0  0  0  0  0  0  0
    4.4752    0.9781    0.0000 N   0  3  0  0  0  0  0  0  0  0  0  0
    4.4752    5.7180    0.0000 N   0  3  0  0  0  0  0  0  0  0  0  0
    7.9953    0.9781    0.0000 N   0  0  0  0  0  0  0  0  0  0  0  0
    7.9953    5.7180    0.0000 N   0  0  0  0  0  0  0  0  0  0  0  0
    5.4262    1.2872    0.0000 C   0  0  0  0  0  0  0  0  0  0  0  0
    5.4262    6.0270    0.0000 C   0  0  0  0  0  0  0  0  0  0  0  0
    7.0443    1.2872    0.0000 C   0  0  0  0  0  0  0  0  0  0  0  0
    7.0443    6.0270    0.0000 C   0  0  0  0  0  0  0  0  0  0  0  0
    5.7353    2.2382    0.0000 C   0  0  0  0  0  0  0  0  0  0  0  0
    5.7353    6.9780    0.0000 C   0  0  0  0  0  0  0  0  0  0  0  0
    5.3708    2.7398    0.0000 H   0  0  0  0  0  0  0  0  0  0  0  0
    5.3708    7.4796    0.0000 H   0  0  0  0  0  0  0  0  0  0  0  0
    8.4561    1.3930    0.0000 H   0  0  0  0  0  0  0  0  0  0  0  0
    8.1242    0.3717    0.0000 H   0  0  0  0  0  0  0  0  0  0  0  0
    8.4561    6.1328    0.0000 H   0  0  0  0  0  0  0  0  0  0  0  0
    8.1242    5.1115    0.0000 H   0  0  0  0  0  0  0  0  0  0  0  0
  4 16  1  0  0  0  0
  4 18  1  0  0  0  0
  5 17  1  0  0  0  0
  5 19  1  0  0  0  0
  6 12  1  0  0  0  0
  7 13  1  0  0  0  0
  8 12  2  0  0  0  0
  9 13  2  0  0  0  0
 10 18  2  0  0  0  0
 10 20  1  0  0  0  0
 11 19  2  0  0  0  0
 11 21  1  0  0  0  0
 12 16  1  0  0  0  0
 13 17  1  0  0  0  0
 14 18  1  0  0  0  0
 14 24  1  0  0  0  0
 14 25  1  0  0  0  0
 15 19  1  0  0  0  0
 15 26  1  0  0  0  0
 15 27  1  0  0  0  0
 16 20  2  0  0  0  0
 17 21  2  0  0  0  0
 20 22  1  0  0  0  0
 21 23  1  0  0  0  0
M  CHG  7   1   2   2  -1   3  -1   6  -1   7  -1  12   1  13   1
M  END
> <PUBCHEM_COMPOUND_CID>
3081556

> <PUBCHEM_COMPOUND_CANONICALIZED>
1

> <PUBCHEM_CACTVS_COMPLEXITY>
125

> <PUBCHEM_CACTVS_HBOND_ACCEPTOR>
12

> <PUBCHEM_CACTVS_HBOND_DONOR>
2

> <PUBCHEM_CACTVS_ROTATABLE_BOND>
0

> <PUBCHEM_CACTVS_SUBSKEYS>
AAADcYBjuABmAAAAAAAABAAAAAAAAWLAAAAAAAAAAAAAAAAB4AAAHAQUAAAAAADBQgQtkRJYUAilABAnZwAA8KlRGjlgQAwIMAKAQAAAAAAQAAAAAIIAACAAAAAAAAAAAAAAAAAAAAAAAAAAAAAAAAAAAA==

> <PUBCHEM_IUPAC_OPENEYE_NAME>
5-nitrothiazol-2-amine;platinum(2+);dichloride

> <PUBCHEM_IUPAC_CAS_NAME>
5-nitro-2-thiazolamine;platinum(2+);dichloride

> <PUBCHEM_IUPAC_NAME_MARKUP>
5-nitro-1,3-thiazol-2-amine;platinum(2+);dichloride

> <PUBCHEM_IUPAC_NAME>
5-nitro-1,3-thiazol-2-amine;platinum(2+);dichloride

> <PUBCHEM_IUPAC_SYSTEMATIC_NAME>
5-nitro-1,3-thiazol-2-amine;platinum(2+);dichloride

> <PUBCHEM_IUPAC_TRADITIONAL_NAME>
(5-nitrothiazol-2-yl)amine;platinum(2+);dichloride

> <PUBCHEM_IUPAC_INCHI>
InChI=1S/2C3H3N3O2S.2ClH.Pt/c2*4-3-5-1-2(9-3)6(7)8;;;/h2*1H,(H2,4,5);2*1H;/q;;;;+2/p-2

> <PUBCHEM_IUPAC_INCHIKEY>
RVVQAQVUXSFQCJ-UHFFFAOYSA-L

> <PUBCHEM_EXACT_MASS>
554.891695

> <PUBCHEM_MOLECULAR_FORMULA>
C6H6Cl2N6O4PtS2

> <PUBCHEM_MOLECULAR_WEIGHT>
556.3

> <PUBCHEM_OPENEYE_CAN_SMILES>
C1=C(SC(=N1)N)[N+](=O)[O-].C1=C(SC(=N1)N)[N+](=O)[O-].[Cl-].[Cl-].[Pt+2]

> <PUBCHEM_OPENEYE_ISO_SMILES>
C1=C(SC(=N1)N)[N+](=O)[O-].C1=C(SC(=N1)N)[N+](=O)[O-].[Cl-].[Cl-].[Pt+2]

> <PUBCHEM_CACTVS_TPSA>
226

> <PUBCHEM_MONOISOTOPIC_WEIGHT>
554.891695

> <PUBCHEM_TOTAL_CHARGE>
0

> <PUBCHEM_HEAVY_ATOM_COUNT>
21

> <PUBCHEM_ATOM_DEF_STEREO_COUNT>
0

> <PUBCHEM_ATOM_UDEF_STEREO_COUNT>
0

> <PUBCHEM_BOND_DEF_STEREO_COUNT>
0

> <PUBCHEM_BOND_UDEF_STEREO_COUNT>
0

> <PUBCHEM_ISOTOPIC_ATOM_COUNT>
0

> <PUBCHEM_COMPONENT_COUNT>
5

> <PUBCHEM_CACTVS_TAUTO_COUNT>
-1

> <PUBCHEM_COORDINATE_TYPE>
1
5
255

> <PUBCHEM_BONDANNOTATIONS>
10  18  8
10  20  8
11  19  8
11  21  8
16  20  8
17  21  8
4  16  8
4  18  8
5  17  8
5  19  8

$$$$
3037556
  -OEChem-04052116402D

 24 23  0     1  0  0  0  0  0999 V2000
    5.1350   -1.2500    0.0000 O   0  0  0  0  0  0  0  0  0  0  0  0
    6.0010    1.2500    0.0000 O   0  0  0  0  0  0  0  0  0  0  0  0
    4.2690    1.2500    0.0000 O   0  0  0  0  0  0  0  0  0  0  0  0
    6.8671   -1.2500    0.0000 O   0  0  0  0  0  0  0  0  0  0  0  0
    2.5369    0.2500    0.0000 O   0  0  0  0  0  0  0  0  0  0  0  0
    8.5991   -0.2500    0.0000 O   0  0  0  0  0  0  0  0  0  0  0  0
    5.1350   -0.2500    0.0000 C   0  0  2  0  0  0  0  0  0  0  0  0
    6.0010    0.2500    0.0000 C   0  0  1  0  0  0  0  0  0  0  0  0
    4.2690    0.2500    0.0000 C   0  0  1  0  0  0  0  0  0  0  0  0
    6.8671   -0.2500    0.0000 C   0  0  2  0  0  0  0  0  0  0  0  0
    3.4030   -0.2500    0.0000 C   0  0  0  0  0  0  0  0  0  0  0  0
    7.7331    0.2500    0.0000 C   0  0  0  0  0  0  0  0  0  0  0  0
    5.6720   -0.5600    0.0000 H   0  0  0  0  0  0  0  0  0  0  0  0
    6.5380    0.5600    0.0000 H   0  0  0  0  0  0  0  0  0  0  0  0
    4.8059    0.5600    0.0000 H   0  0  0  0  0  0  0  0  0  0  0  0
    6.3301   -0.5600    0.0000 H   0  0  0  0  0  0  0  0  0  0  0  0
    3.0044   -0.7249    0.0000 H   0  0  0  0  0  0  0  0  0  0  0  0
    3.8015   -0.7249    0.0000 H   0  0  0  0  0  0  0  0  0  0  0  0
    4.5981   -1.5600    0.0000 H   0  0  0  0  0  0  0  0  0  0  0  0
    6.5380    1.5600    0.0000 H   0  0  0  0  0  0  0  0  0  0  0  0
    7.7331    0.8700    0.0000 H   0  0  0  0  0  0  0  0  0  0  0  0
    3.7320    1.5600    0.0000 H   0  0  0  0  0  0  0  0  0  0  0  0
    7.4040   -1.5600    0.0000 H   0  0  0  0  0  0  0  0  0  0  0  0
    2.0000   -0.0600    0.0000 H   0  0  0  0  0  0  0  0  0  0  0  0
  7  1  1  1  0  0  0
  1 19  1  0  0  0  0
  8  2  1  6  0  0  0
  2 20  1  0  0  0  0
  9  3  1  1  0  0  0
  3 22  1  0  0  0  0
 10  4  1  6  0  0  0
  4 23  1  0  0  0  0
  5 11  1  0  0  0  0
  5 24  1  0  0  0  0
  6 12  2  0  0  0  0
  7  8  1  0  0  0  0
  7  9  1  0  0  0  0
  7 13  1  0  0  0  0
  8 10  1  0  0  0  0
  8 14  1  0  0  0  0
  9 11  1  0  0  0  0
  9 15  1  0  0  0  0
 10 12  1  0  0  0  0
 10 16  1  0  0  0  0
 11 17  1  0  0  0  0
 11 18  1  0  0  0  0
 12 21  1  0  0  0  0
M  END
> <PUBCHEM_COMPOUND_CID>
3037556

> <PUBCHEM_COMPOUND_CANONICALIZED>
1

> <PUBCHEM_CACTVS_COMPLEXITY>
138

> <PUBCHEM_CACTVS_HBOND_ACCEPTOR>
6

> <PUBCHEM_CACTVS_HBOND_DONOR>
5

> <PUBCHEM_CACTVS_ROTATABLE_BOND>
5

> <PUBCHEM_CACTVS_SUBSKEYS>
AAADccBgOAAAAAAAAAAAAAAAAAAAAAAAAAAAAAAAAAAAAAAAAAAAGgAACAAACBSggAIAAAAAAgAIAAgQgAIAAAAAAAAAAAFAAAABEBYAAAAAQAAFIAABAAHKbARAAAAAAAAAAAAAAAAAAAAAAAAAAAAAAA==

> <PUBCHEM_IUPAC_OPENEYE_NAME>
(2R,3S,4S,5R)-2,3,4,5,6-pentahydroxyhexanal

> <PUBCHEM_IUPAC_CAS_NAME>
(2R,3S,4S,5R)-2,3,4,5,6-pentahydroxyhexanal

> <PUBCHEM_IUPAC_NAME_MARKUP>
(2<I>R</I>,3<I>S</I>,4<I>S</I>,5<I>R</I>)-2,3,4,5,6-pentahydroxyhexanal

> <PUBCHEM_IUPAC_NAME>
(2R,3S,4S,5R)-2,3,4,5,6-pentahydroxyhexanal

> <PUBCHEM_IUPAC_SYSTEMATIC_NAME>
(2R,3S,4S,5R)-2,3,4,5,6-pentakis(oxidanyl)hexanal

> <PUBCHEM_IUPAC_TRADITIONAL_NAME>
(2R,3S,4S,5R)-2,3,4,5,6-pentahydroxyhexanal

> <PUBCHEM_IUPAC_INCHI>
InChI=1S/C6H12O6/c7-1-3(9)5(11)6(12)4(10)2-8/h1,3-6,8-12H,2H2/t3-,4+,5+,6-/m0/s1

> <PUBCHEM_IUPAC_INCHIKEY>
GZCGUPFRVQAUEE-KCDKBNATSA-N

> <PUBCHEM_XLOGP3>
-2.9

> <PUBCHEM_EXACT_MASS>
180.063388

> <PUBCHEM_MOLECULAR_FORMULA>
C6H12O6

> <PUBCHEM_MOLECULAR_WEIGHT>
180.16

> <PUBCHEM_OPENEYE_CAN_SMILES>
C(C(C(C(C(C=O)O)O)O)O)O

> <PUBCHEM_OPENEYE_ISO_SMILES>
C([C@H]([C@@H]([C@@H]([C@H](C=O)O)O)O)O)O

> <PUBCHEM_CACTVS_TPSA>
118

> <PUBCHEM_MONOISOTOPIC_WEIGHT>
180.063388

> <PUBCHEM_TOTAL_CHARGE>
0

> <PUBCHEM_HEAVY_ATOM_COUNT>
12

> <PUBCHEM_ATOM_DEF_STEREO_COUNT>
4

> <PUBCHEM_ATOM_UDEF_STEREO_COUNT>
0

> <PUBCHEM_BOND_DEF_STEREO_COUNT>
0

> <PUBCHEM_BOND_UDEF_STEREO_COUNT>
0

> <PUBCHEM_ISOTOPIC_ATOM_COUNT>
0

> <PUBCHEM_COMPONENT_COUNT>
1

> <PUBCHEM_CACTVS_TAUTO_COUNT>
-1

> <PUBCHEM_COORDINATE_TYPE>
1
5
255

> <PUBCHEM_BONDANNOTATIONS>
7  1  5
8  2  6
9  3  5
10  4  6

$$$$
3034393
  -OEChem-04052116402D

 48 52  0     1  0  0  0  0  0999 V2000
    5.2308    0.3935    0.0000 O   0  0  0  0  0  0  0  0  0  0  0  0
    2.2862   -0.7071    0.0000 O   0  0  0  0  0  0  0  0  0  0  0  0
    2.8090    0.9501    0.0000 O   0  0  0  0  0  0  0  0  0  0  0  0
    6.3076    1.6219    0.0000 O   0  0  0  0  0  0  0  0  0  0  0  0
    4.5817    1.4764    0.0000 O   0  0  0  0  0  0  0  0  0  0  0  0
    6.2989   -0.4947    0.0000 C   0  0  1  0  0  0  0  0  0  0  0  0
    5.0849   -1.3404    0.0000 C   0  0  2  0  0  0  0  0  0  0  0  0
    5.9970   -1.3619    0.0000 C   0  0  2  0  0  0  0  0  0  0  0  0
    4.8219   -0.4664    0.0000 C   0  0  2  0  0  0  0  0  0  0  0  0
    5.5707    0.0545    0.0000 C   0  0  2  0  0  0  0  0  0  0  0  0
    3.9046   -0.2503    0.0000 C   0  0  1  0  0  0  0  0  0  0  0  0
    6.9949   -1.3272    0.0000 C   0  0  0  0  0  0  0  0  0  0  0  0
    7.1658   -0.1901    0.0000 C   0  0  0  0  0  0  0  0  0  0  0  0
    6.4872   -2.1385    0.0000 C   0  0  0  0  0  0  0  0  0  0  0  0
    8.0478   -1.5897    0.0000 C   0  0  2  0  0  0  0  0  0  0  0  0
    4.4471   -2.0549    0.0000 C   0  0  0  0  0  0  0  0  0  0  0  0
    3.2595   -0.9365    0.0000 C   0  0  2  0  0  0  0  0  0  0  0  0
    7.3995   -2.2397    0.0000 C   0  0  0  0  0  0  0  0  0  0  0  0
    7.9434   -0.6771    0.0000 C   0  0  0  0  0  0  0  0  0  0  0  0
    3.5310   -1.8392    0.0000 C   0  0  0  0  0  0  0  0  0  0  0  0
    3.6398    0.3935    0.0000 C   0  0  0  0  0  0  0  0  0  0  0  0
    5.4867    1.0509    0.0000 C   0  0  0  0  0  0  0  0  0  0  0  0
    2.9212   -0.0692    0.0000 C   0  0  0  0  0  0  0  0  0  0  0  0
    8.7470   -0.0820    0.0000 C   0  0  0  0  0  0  0  0  0  0  0  0
    5.5778   -2.1014    0.0000 H   0  0  0  0  0  0  0  0  0  0  0  0
    4.3868    0.2639    0.0000 H   0  0  0  0  0  0  0  0  0  0  0  0
    6.1135    0.3541    0.0000 H   0  0  0  0  0  0  0  0  0  0  0  0
    7.0378   -1.9457    0.0000 H   0  0  0  0  0  0  0  0  0  0  0  0
    6.4198   -1.5587    0.0000 H   0  0  0  0  0  0  0  0  0  0  0  0
    6.8352    0.3344    0.0000 H   0  0  0  0  0  0  0  0  0  0  0  0
    7.6036    0.2489    0.0000 H   0  0  0  0  0  0  0  0  0  0  0  0
    6.5578   -2.7544    0.0000 H   0  0  0  0  0  0  0  0  0  0  0  0
    5.9024   -2.3444    0.0000 H   0  0  0  0  0  0  0  0  0  0  0  0
    8.8505   -1.8692    0.0000 H   0  0  0  0  0  0  0  0  0  0  0  0
    4.9715   -2.3858    0.0000 H   0  0  0  0  0  0  0  0  0  0  0  0
    4.2074   -2.6267    0.0000 H   0  0  0  0  0  0  0  0  0  0  0  0
    2.8346   -1.3880    0.0000 H   0  0  0  0  0  0  0  0  0  0  0  0
    7.9250   -2.5688    0.0000 H   0  0  0  0  0  0  0  0  0  0  0  0
    7.1956   -2.8253    0.0000 H   0  0  0  0  0  0  0  0  0  0  0  0
    3.4958   -2.4582    0.0000 H   0  0  0  0  0  0  0  0  0  0  0  0
    2.9152   -1.9120    0.0000 H   0  0  0  0  0  0  0  0  0  0  0  0
    2.8088   -0.6789    0.0000 H   0  0  0  0  0  0  0  0  0  0  0  0
    2.3114    0.0432    0.0000 H   0  0  0  0  0  0  0  0  0  0  0  0
    3.0335    0.5406    0.0000 H   0  0  0  0  0  0  0  0  0  0  0  0
    8.6766    0.5340    0.0000 H   0  0  0  0  0  0  0  0  0  0  0  0
    9.3157   -0.3290    0.0000 H   0  0  0  0  0  0  0  0  0  0  0  0
    1.8612   -1.1586    0.0000 H   0  0  0  0  0  0  0  0  0  0  0  0
    6.2556    2.2397    0.0000 H   0  0  0  0  0  0  0  0  0  0  0  0
  7  1  1  1  0  0  0
  1 21  1  0  0  0  0
 17  2  1  6  0  0  0
  2 47  1  0  0  0  0
  3 21  2  0  0  0  0
  4 22  1  0  0  0  0
  4 48  1  0  0  0  0
  5 22  2  0  0  0  0
  6  8  1  0  0  0  0
  6 10  1  0  0  0  0
  6 12  1  1  0  0  0
  6 13  1  0  0  0  0
  7  8  1  0  0  0  0
  7  9  1  0  0  0  0
  7 16  1  0  0  0  0
  8 14  1  0  0  0  0
  8 25  1  6  0  0  0
  9 10  1  0  0  0  0
  9 11  1  0  0  0  0
  9 26  1  6  0  0  0
 10 22  1  6  0  0  0
 10 27  1  0  0  0  0
 11 17  1  0  0  0  0
 11 21  1  0  0  0  0
 11 23  1  6  0  0  0
 12 15  1  0  0  0  0
 12 28  1  0  0  0  0
 12 29  1  0  0  0  0
 13 19  1  0  0  0  0
 13 30  1  0  0  0  0
 13 31  1  0  0  0  0
 14 18  1  0  0  0  0
 14 32  1  0  0  0  0
 14 33  1  0  0  0  0
 15 18  1  0  0  0  0
 15 19  1  0  0  0  0
 15 34  1  6  0  0  0
 16 20  1  0  0  0  0
 16 35  1  0  0  0  0
 16 36  1  0  0  0  0
 17 20  1  0  0  0  0
 17 37  1  0  0  0  0
 18 38  1  0  0  0  0
 18 39  1  0  0  0  0
 19 24  2  0  0  0  0
 20 40  1  0  0  0  0
 20 41  1  0  0  0  0
 23 42  1  0  0  0  0
 23 43  1  0  0  0  0
 23 44  1  0  0  0  0
 24 45  1  0  0  0  0
 24 46  1  0  0  0  0
M  END
> <PUBCHEM_COMPOUND_CID>
3034393

> <PUBCHEM_COMPOUND_CANONICALIZED>
1

> <PUBCHEM_CACTVS_COMPLEXITY>
685

> <PUBCHEM_CACTVS_HBOND_ACCEPTOR>
5

> <PUBCHEM_CACTVS_HBOND_DONOR>
2

> <PUBCHEM_CACTVS_ROTATABLE_BOND>
1

> <PUBCHEM_CACTVS_SUBSKEYS>
AAADceB4OAAAAAAAAAAAAAAAAAAAAaMEAAAwYAAABogSAGDAAAAAGgAACAAAD1SggAICCAAABgCIAgDSCAAAAAAgAAAAAAEAAAgAEBYAAQACQAAFoAAAAAHK7vzPgAAAAAAAAADCAAYAADAAAYAADAAAAA==

> <PUBCHEM_IUPAC_OPENEYE_NAME>
(1R,2R,5S,8R,9S,10R,11S,12S)-12-hydroxy-11-methyl-6-methylene-16-oxo-15-oxapentacyclo[9.3.2.15,8.01,10.02,8]heptadecane-9-carboxylic acid

> <PUBCHEM_IUPAC_CAS_NAME>
(1R,2R,5S,8R,9S,10R,11S,12S)-12-hydroxy-11-methyl-6-methylene-16-oxo-15-oxapentacyclo[9.3.2.15,8.01,10.02,8]heptadecane-9-carboxylic acid

> <PUBCHEM_IUPAC_NAME_MARKUP>
(1<I>R</I>,2<I>R</I>,5<I>S</I>,8<I>R</I>,9<I>S</I>,10<I>R</I>,11<I>S</I>,12<I>S</I>)-12-hydroxy-11-methyl-6-methylidene-16-oxo-15-oxapentacyclo[9.3.2.1<SUP>5,8</SUP>.0<SUP>1,10</SUP>.0<SUP>2,8</SUP>]heptadecane-9-carboxylic acid

> <PUBCHEM_IUPAC_NAME>
(1R,2R,5S,8R,9S,10R,11S,12S)-12-hydroxy-11-methyl-6-methylidene-16-oxo-15-oxapentacyclo[9.3.2.15,8.01,10.02,8]heptadecane-9-carboxylic acid

> <PUBCHEM_IUPAC_SYSTEMATIC_NAME>
(1R,2R,5S,8R,9S,10R,11S,12S)-11-methyl-6-methylidene-12-oxidanyl-16-oxidanylidene-15-oxapentacyclo[9.3.2.15,8.01,10.02,8]heptadecane-9-carboxylic acid

> <PUBCHEM_IUPAC_TRADITIONAL_NAME>
(1R,2R,5S,8R,9S,10R,11S,12S)-12-hydroxy-16-keto-11-methyl-6-methylene-15-oxapentacyclo[9.3.2.15,8.01,10.02,8]heptadecane-9-carboxylic acid

> <PUBCHEM_IUPAC_INCHI>
InChI=1S/C19H24O5/c1-9-7-18-8-10(9)3-4-11(18)19-6-5-12(20)17(2,16(23)24-19)14(19)13(18)15(21)22/h10-14,20H,1,3-8H2,2H3,(H,21,22)/t10-,11+,12-,13+,14+,17+,18-,19+/m0/s1

> <PUBCHEM_IUPAC_INCHIKEY>
RSQSQJNRHICNNH-OZGZIUBOSA-N

> <PUBCHEM_XLOGP3_AA>
1.7

> <PUBCHEM_EXACT_MASS>
332.162374

> <PUBCHEM_MOLECULAR_FORMULA>
C19H24O5

> <PUBCHEM_MOLECULAR_WEIGHT>
332.4

> <PUBCHEM_OPENEYE_CAN_SMILES>
CC12C(CCC3(C1C(C45C3CCC(C4)C(=C)C5)C(=O)O)OC2=O)O

> <PUBCHEM_OPENEYE_ISO_SMILES>
C[C@@]12[C@H](CC[C@@]3([C@@H]1[C@@H]([C@]45[C@H]3CC[C@@H](C4)C(=C)C5)C(=O)O)OC2=O)O

> <PUBCHEM_CACTVS_TPSA>
83.8

> <PUBCHEM_MONOISOTOPIC_WEIGHT>
332.162374

> <PUBCHEM_TOTAL_CHARGE>
0

> <PUBCHEM_HEAVY_ATOM_COUNT>
24

> <PUBCHEM_ATOM_DEF_STEREO_COUNT>
8

> <PUBCHEM_ATOM_UDEF_STEREO_COUNT>
0

> <PUBCHEM_BOND_DEF_STEREO_COUNT>
0

> <PUBCHEM_BOND_UDEF_STEREO_COUNT>
0

> <PUBCHEM_ISOTOPIC_ATOM_COUNT>
0

> <PUBCHEM_COMPONENT_COUNT>
1

> <PUBCHEM_CACTVS_TAUTO_COUNT>
-1

> <PUBCHEM_COORDINATE_TYPE>
1
5
255

> <PUBCHEM_BONDANNOTATIONS>
7  1  5
10  22  6
11  23  6
15  34  6
17  2  6
6  12  5
8  25  6
9  26  6

$$$$
656894
  -OEChem-04052116402D

 33 33  0     1  0  0  0  0  0999 V2000
    6.0010    0.9050    0.0000 S   0  0  0  0  0  0  0  0  0  0  0  0
    4.2690    0.9050    0.0000 O   0  0  0  0  0  0  0  0  0  0  0  0
    4.2690   -2.0950    0.0000 O   0  0  0  0  0  0  0  0  0  0  0  0
    2.5369   -1.0950    0.0000 O   0  0  0  0  0  0  0  0  0  0  0  0
    6.0010   -1.0950    0.0000 O   0  0  0  0  0  0  0  0  0  0  0  0
    2.5369    1.9050    0.0000 O   0  0  0  0  0  0  0  0  0  0  0  0
    4.2690   -1.0950    0.0000 C   0  0  1  0  0  0  0  0  0  0  0  0
    3.4030   -0.5950    0.0000 C   0  0  2  0  0  0  0  0  0  0  0  0
    5.1350   -0.5950    0.0000 C   0  0  2  0  0  0  0  0  0  0  0  0
    3.4030    0.4050    0.0000 C   0  0  1  0  0  0  0  0  0  0  0  0
    5.1350    0.4050    0.0000 C   0  0  2  0  0  0  0  0  0  0  0  0
    2.5369    0.9050    0.0000 C   0  0  0  0  0  0  0  0  0  0  0  0
    6.0010    1.9050    0.0000 C   0  0  0  0  0  0  0  0  0  0  0  0
    6.8671    2.4050    0.0000 C   0  0  0  0  0  0  0  0  0  0  0  0
    5.1350    2.4050    0.0000 C   0  0  0  0  0  0  0  0  0  0  0  0
    3.7320   -1.4050    0.0000 H   0  0  0  0  0  0  0  0  0  0  0  0
    3.4030   -1.2150    0.0000 H   0  0  0  0  0  0  0  0  0  0  0  0
    5.1350   -1.2150    0.0000 H   0  0  0  0  0  0  0  0  0  0  0  0
    3.4030    1.0250    0.0000 H   0  0  0  0  0  0  0  0  0  0  0  0
    5.1350    1.0250    0.0000 H   0  0  0  0  0  0  0  0  0  0  0  0
    1.9264    1.0127    0.0000 H   0  0  0  0  0  0  0  0  0  0  0  0
    2.3249    0.3224    0.0000 H   0  0  0  0  0  0  0  0  0  0  0  0
    6.0010    2.5250    0.0000 H   0  0  0  0  0  0  0  0  0  0  0  0
    3.7320   -2.4050    0.0000 H   0  0  0  0  0  0  0  0  0  0  0  0
    2.0000   -0.7850    0.0000 H   0  0  0  0  0  0  0  0  0  0  0  0
    6.5380   -0.7850    0.0000 H   0  0  0  0  0  0  0  0  0  0  0  0
    7.1771    1.8681    0.0000 H   0  0  0  0  0  0  0  0  0  0  0  0
    7.4040    2.7150    0.0000 H   0  0  0  0  0  0  0  0  0  0  0  0
    6.5571    2.9419    0.0000 H   0  0  0  0  0  0  0  0  0  0  0  0
    5.4450    2.9419    0.0000 H   0  0  0  0  0  0  0  0  0  0  0  0
    4.5981    2.7150    0.0000 H   0  0  0  0  0  0  0  0  0  0  0  0
    4.8250    1.8681    0.0000 H   0  0  0  0  0  0  0  0  0  0  0  0
    2.0000    2.2150    0.0000 H   0  0  0  0  0  0  0  0  0  0  0  0
 11  1  1  1  0  0  0
  1 13  1  0  0  0  0
  2 10  1  0  0  0  0
  2 11  1  0  0  0  0
  7  3  1  1  0  0  0
  3 24  1  0  0  0  0
  8  4  1  1  0  0  0
  4 25  1  0  0  0  0
  9  5  1  6  0  0  0
  5 26  1  0  0  0  0
  6 12  1  0  0  0  0
  6 33  1  0  0  0  0
  7  8  1  0  0  0  0
  7  9  1  0  0  0  0
  7 16  1  0  0  0  0
  8 10  1  0  0  0  0
  8 17  1  0  0  0  0
  9 11  1  0  0  0  0
  9 18  1  0  0  0  0
 10 12  1  1  0  0  0
 10 19  1  0  0  0  0
 11 20  1  0  0  0  0
 12 21  1  0  0  0  0
 12 22  1  0  0  0  0
 13 14  1  0  0  0  0
 13 15  1  0  0  0  0
 13 23  1  0  0  0  0
 14 27  1  0  0  0  0
 14 28  1  0  0  0  0
 14 29  1  0  0  0  0
 15 30  1  0  0  0  0
 15 31  1  0  0  0  0
 15 32  1  0  0  0  0
M  END
> <PUBCHEM_COMPOUND_CID>
656894

> <PUBCHEM_COMPOUND_CANONICALIZED>
1

> <PUBCHEM_CACTVS_COMPLEXITY>
201

> <PUBCHEM_CACTVS_HBOND_ACCEPTOR>
6

> <PUBCHEM_CACTVS_HBOND_DONOR>
4

> <PUBCHEM_CACTVS_ROTATABLE_BOND>
3

> <PUBCHEM_CACTVS_SUBSKEYS>
AAADceBwOABAAAAAAAAAAAAAAAAAAAAAAAAkAAAAAAAAAAAAAAAAGgQACAAACBSkwAKCAAAABggAAAAAAAAAAAAAABAAAAAAAAABEAIgAAACQAAFAAAjAAHAYAQAAAAAAAAAAAAAAAAAAAAAAAAAAAAAAA==

> <PUBCHEM_IUPAC_OPENEYE_NAME>
(2R,3R,4S,5R,6S)-2-(hydroxymethyl)-6-isopropylsulfanyl-tetrahydropyran-3,4,5-triol

> <PUBCHEM_IUPAC_CAS_NAME>
(2R,3R,4S,5R,6S)-2-(hydroxymethyl)-6-(propan-2-ylthio)oxane-3,4,5-triol

> <PUBCHEM_IUPAC_NAME_MARKUP>
(2<I>R</I>,3<I>R</I>,4<I>S</I>,5<I>R</I>,6<I>S</I>)-2-(hydroxymethyl)-6-propan-2-ylsulfanyloxane-3,4,5-triol

> <PUBCHEM_IUPAC_NAME>
(2R,3R,4S,5R,6S)-2-(hydroxymethyl)-6-propan-2-ylsulfanyloxane-3,4,5-triol

> <PUBCHEM_IUPAC_SYSTEMATIC_NAME>
(2R,3R,4S,5R,6S)-2-(hydroxymethyl)-6-propan-2-ylsulfanyl-oxane-3,4,5-triol

> <PUBCHEM_IUPAC_TRADITIONAL_NAME>
(2S,3R,4S,5R,6R)-2-(isopropylthio)-6-methylol-tetrahydropyran-3,4,5-triol

> <PUBCHEM_IUPAC_INCHI>
InChI=1S/C9H18O5S/c1-4(2)15-9-8(13)7(12)6(11)5(3-10)14-9/h4-13H,3H2,1-2H3/t5-,6+,7+,8-,9+/m1/s1

> <PUBCHEM_IUPAC_INCHIKEY>
BPHPUYQFMNQIOC-NXRLNHOXSA-N

> <PUBCHEM_XLOGP3_AA>
-0.5

> <PUBCHEM_EXACT_MASS>
238.087495

> <PUBCHEM_MOLECULAR_FORMULA>
C9H18O5S

> <PUBCHEM_MOLECULAR_WEIGHT>
238.3

> <PUBCHEM_OPENEYE_CAN_SMILES>
CC(C)SC1C(C(C(C(O1)CO)O)O)O

> <PUBCHEM_OPENEYE_ISO_SMILES>
CC(C)S[C@H]1[C@@H]([C@H]([C@H]([C@H](O1)CO)O)O)O

> <PUBCHEM_CACTVS_TPSA>
115

> <PUBCHEM_MONOISOTOPIC_WEIGHT>
238.087495

> <PUBCHEM_TOTAL_CHARGE>
0

> <PUBCHEM_HEAVY_ATOM_COUNT>
15

> <PUBCHEM_ATOM_DEF_STEREO_COUNT>
5

> <PUBCHEM_ATOM_UDEF_STEREO_COUNT>
0

> <PUBCHEM_BOND_DEF_STEREO_COUNT>
0

> <PUBCHEM_BOND_UDEF_STEREO_COUNT>
0

> <PUBCHEM_ISOTOPIC_ATOM_COUNT>
0

> <PUBCHEM_COMPONENT_COUNT>
1

> <PUBCHEM_CACTVS_TAUTO_COUNT>
-1

> <PUBCHEM_COORDINATE_TYPE>
1
5
255

> <PUBCHEM_BONDANNOTATIONS>
11  1  5
10  12  5
7  3  5
8  4  5
9  5  6

$$$$
547079
  -OEChem-04052116402D

 22 20  0     0  0  0  0  0  0999 V2000
    4.0010    1.9030    0.0000 Cl  0  0  0  0  0  0  0  0  0  0  0  0
    1.5005    4.8059    0.0000 Cl  0  0  0  0  0  0  0  0  0  0  0  0
    1.4030    1.4030    0.0000 N   0  3  0  0  0  0  0  0  0  0  0  0
    2.2690    1.9030    0.0000 C   0  0  0  0  0  0  0  0  0  0  0  0
    0.5369    0.9030    0.0000 C   0  0  0  0  0  0  0  0  0  0  0  0
    0.9030    2.2690    0.0000 C   0  0  0  0  0  0  0  0  0  0  0  0
    1.9030    0.5369    0.0000 C   0  0  0  0  0  0  0  0  0  0  0  0
    3.1350    1.4030    0.0000 C   0  0  0  0  0  0  0  0  0  0  0  0
    2.6675    2.3779    0.0000 H   0  0  0  0  0  0  0  0  0  0  0  0
    1.8705    2.3779    0.0000 H   0  0  0  0  0  0  0  0  0  0  0  0
    0.2269    1.4399    0.0000 H   0  0  0  0  0  0  0  0  0  0  0  0
    0.0000    0.5930    0.0000 H   0  0  0  0  0  0  0  0  0  0  0  0
    0.8469    0.3660    0.0000 H   0  0  0  0  0  0  0  0  0  0  0  0
    1.4399    2.5790    0.0000 H   0  0  0  0  0  0  0  0  0  0  0  0
    0.5930    2.8059    0.0000 H   0  0  0  0  0  0  0  0  0  0  0  0
    0.3660    1.9590    0.0000 H   0  0  0  0  0  0  0  0  0  0  0  0
    1.3660    0.2269    0.0000 H   0  0  0  0  0  0  0  0  0  0  0  0
    2.2130    0.0000    0.0000 H   0  0  0  0  0  0  0  0  0  0  0  0
    2.4399    0.8469    0.0000 H   0  0  0  0  0  0  0  0  0  0  0  0
    2.7365    0.9280    0.0000 H   0  0  0  0  0  0  0  0  0  0  0  0
    3.5335    0.9280    0.0000 H   0  0  0  0  0  0  0  0  0  0  0  0
    2.5005    4.8059    0.0000 H   0  0  0  0  0  0  0  0  0  0  0  0
  1  8  1  0  0  0  0
  2 22  1  0  0  0  0
  3  4  1  0  0  0  0
  3  5  1  0  0  0  0
  3  6  1  0  0  0  0
  3  7  1  0  0  0  0
  4  8  1  0  0  0  0
  4  9  1  0  0  0  0
  4 10  1  0  0  0  0
  5 11  1  0  0  0  0
  5 12  1  0  0  0  0
  5 13  1  0  0  0  0
  6 14  1  0  0  0  0
  6 15  1  0  0  0  0
  6 16  1  0  0  0  0
  7 17  1  0  0  0  0
  7 18  1  0  0  0  0
  7 19  1  0  0  0  0
  8 20  1  0  0  0  0
  8 21  1  0  0  0  0
M  CHG  1   3   1
M  END
> <PUBCHEM_COMPOUND_CID>
547079

> <PUBCHEM_COMPOUND_CANONICALIZED>
1

> <PUBCHEM_CACTVS_COMPLEXITY>
46.5

> <PUBCHEM_CACTVS_HBOND_ACCEPTOR>
0

> <PUBCHEM_CACTVS_HBOND_DONOR>
1

> <PUBCHEM_CACTVS_ROTATABLE_BOND>
2

> <PUBCHEM_CACTVS_SUBSKEYS>
AAADccBiAAAGAAAAAAAAAAAAAAAAAAAAAAAAAAAAAAAAAAAAAAAAHAIAAAAAAAPBAEQCAAMAAAAAAAAAAAAAAAAAAAAAAAAIAAAAAAAAAABAAAAAAAAAAAAAAAAAAAAAAAAAAAAAAAAAAAAAAAAAAAAAAA==

> <PUBCHEM_IUPAC_OPENEYE_NAME>
2-chloroethyl(trimethyl)ammonium;hydrochloride

> <PUBCHEM_IUPAC_CAS_NAME>
2-chloroethyl(trimethyl)ammonium;hydrochloride

> <PUBCHEM_IUPAC_NAME_MARKUP>
2-chloroethyl(trimethyl)azanium;hydrochloride

> <PUBCHEM_IUPAC_NAME>
2-chloroethyl(trimethyl)azanium;hydrochloride

> <PUBCHEM_IUPAC_SYSTEMATIC_NAME>
2-chloroethyl(trimethyl)azanium;hydrochloride

> <PUBCHEM_IUPAC_TRADITIONAL_NAME>
2-chloroethyl(trimethyl)ammonium;hydrochloride

> <PUBCHEM_IUPAC_INCHI>
InChI=1S/C5H13ClN.ClH/c1-7(2,3)5-4-6;/h4-5H2,1-3H3;1H/q+1;

> <PUBCHEM_IUPAC_INCHIKEY>
UHZZMRAGKVHANO-UHFFFAOYSA-N

> <PUBCHEM_EXACT_MASS>
158.05033

> <PUBCHEM_MOLECULAR_FORMULA>
C5H14Cl2N+

> <PUBCHEM_MOLECULAR_WEIGHT>
159.07

> <PUBCHEM_OPENEYE_CAN_SMILES>
C[N+](C)(C)CCCl.Cl

> <PUBCHEM_OPENEYE_ISO_SMILES>
C[N+](C)(C)CCCl.Cl

> <PUBCHEM_CACTVS_TPSA>
0

> <PUBCHEM_MONOISOTOPIC_WEIGHT>
158.05033

> <PUBCHEM_TOTAL_CHARGE>
1

> <PUBCHEM_HEAVY_ATOM_COUNT>
8

> <PUBCHEM_ATOM_DEF_STEREO_COUNT>
0

> <PUBCHEM_ATOM_UDEF_STEREO_COUNT>
0

> <PUBCHEM_BOND_DEF_STEREO_COUNT>
0

> <PUBCHEM_BOND_UDEF_STEREO_COUNT>
0

> <PUBCHEM_ISOTOPIC_ATOM_COUNT>
0

> <PUBCHEM_COMPONENT_COUNT>
2

> <PUBCHEM_CACTVS_TAUTO_COUNT>
-1

> <PUBCHEM_COORDINATE_TYPE>
1
5
255

$$$$
517166
  -OEChem-04052116402D

 21 14  0     0  0  0  0  0  0999 V2000
    0.8660    2.5000    0.0000 Co  0  0  0  0  0  0  0  0  0  0  0  0
    1.7320    3.0000    0.0000 Cl  0  0  0  0  0  0  0  0  0  0  0  0
    0.0000    3.0000    0.0000 Cl  0  0  0  0  0  0  0  0  0  0  0  0
    0.8660    5.0000    0.0000 O   0  0  0  0  0  0  0  0  0  0  0  0
    4.2690    0.0000    0.0000 O   0  0  0  0  0  0  0  0  0  0  0  0
    4.2690    2.5000    0.0000 O   0  0  0  0  0  0  0  0  0  0  0  0
    4.2690    5.0000    0.0000 O   0  0  0  0  0  0  0  0  0  0  0  0
    4.2690    7.5000    0.0000 O   0  0  0  0  0  0  0  0  0  0  0  0
    7.3429    3.7500    0.0000 O   0  0  0  0  0  0  0  0  0  0  0  0
    1.4030    5.3100    0.0000 H   0  0  0  0  0  0  0  0  0  0  0  0
    0.3291    5.3100    0.0000 H   0  0  0  0  0  0  0  0  0  0  0  0
    4.8059    0.3100    0.0000 H   0  0  0  0  0  0  0  0  0  0  0  0
    3.7320    0.3100    0.0000 H   0  0  0  0  0  0  0  0  0  0  0  0
    4.8059    2.8100    0.0000 H   0  0  0  0  0  0  0  0  0  0  0  0
    3.7320    2.8100    0.0000 H   0  0  0  0  0  0  0  0  0  0  0  0
    4.8059    5.3100    0.0000 H   0  0  0  0  0  0  0  0  0  0  0  0
    3.7320    5.3100    0.0000 H   0  0  0  0  0  0  0  0  0  0  0  0
    4.8059    7.8100    0.0000 H   0  0  0  0  0  0  0  0  0  0  0  0
    3.7320    7.8100    0.0000 H   0  0  0  0  0  0  0  0  0  0  0  0
    7.8798    4.0600    0.0000 H   0  0  0  0  0  0  0  0  0  0  0  0
    6.8059    4.0600    0.0000 H   0  0  0  0  0  0  0  0  0  0  0  0
  1  2  1  0  0  0  0
  1  3  1  0  0  0  0
  4 10  1  0  0  0  0
  4 11  1  0  0  0  0
  5 12  1  0  0  0  0
  5 13  1  0  0  0  0
  6 14  1  0  0  0  0
  6 15  1  0  0  0  0
  7 16  1  0  0  0  0
  7 17  1  0  0  0  0
  8 18  1  0  0  0  0
  8 19  1  0  0  0  0
  9 20  1  0  0  0  0
  9 21  1  0  0  0  0
M  END
> <PUBCHEM_COMPOUND_CID>
517166

> <PUBCHEM_COMPOUND_CANONICALIZED>
1

> <PUBCHEM_CACTVS_COMPLEXITY>
2.8

> <PUBCHEM_CACTVS_HBOND_ACCEPTOR>
6

> <PUBCHEM_CACTVS_HBOND_DONOR>
6

> <PUBCHEM_CACTVS_ROTATABLE_BOND>
0

> <PUBCHEM_CACTVS_SUBSKEYS>
AAADccAAOAAGAAAQAAAAAAAAAAAAAAAAAAAAAAAAAAAAAAAAAAAAAAAACAAAAAAAAAAAAAAAAAAAAAAAAAAAAAAAAAAAAAAAAAAAAAAAAAAAAAAAAAAAAAAAAAAAAAAAAAAAAAAAAAAAAAAAAAAAAAAAAA==

> <PUBCHEM_IUPAC_OPENEYE_NAME>
dichlorocobalt;hexahydrate

> <PUBCHEM_IUPAC_CAS_NAME>
dichlorocobalt;hexahydrate

> <PUBCHEM_IUPAC_NAME_MARKUP>
dichlorocobalt;hexahydrate

> <PUBCHEM_IUPAC_NAME>
dichlorocobalt;hexahydrate

> <PUBCHEM_IUPAC_SYSTEMATIC_NAME>
bis(chloranyl)cobalt;hexahydrate

> <PUBCHEM_IUPAC_TRADITIONAL_NAME>
dichlorocobalt;hexahydrate

> <PUBCHEM_IUPAC_INCHI>
InChI=1S/2ClH.Co.6H2O/h2*1H;;6*1H2/q;;+2;;;;;;/p-2

> <PUBCHEM_IUPAC_INCHIKEY>
GFHNAMRJFCEERV-UHFFFAOYSA-L

> <PUBCHEM_EXACT_MASS>
236.934287

> <PUBCHEM_MOLECULAR_FORMULA>
Cl2CoH12O6

> <PUBCHEM_MOLECULAR_WEIGHT>
237.93

> <PUBCHEM_OPENEYE_CAN_SMILES>
O.O.O.O.O.O.Cl[Co]Cl

> <PUBCHEM_OPENEYE_ISO_SMILES>
O.O.O.O.O.O.Cl[Co]Cl

> <PUBCHEM_CACTVS_TPSA>
6

> <PUBCHEM_MONOISOTOPIC_WEIGHT>
236.934287

> <PUBCHEM_TOTAL_CHARGE>
0

> <PUBCHEM_HEAVY_ATOM_COUNT>
9

> <PUBCHEM_ATOM_DEF_STEREO_COUNT>
0

> <PUBCHEM_ATOM_UDEF_STEREO_COUNT>
0

> <PUBCHEM_BOND_DEF_STEREO_COUNT>
0

> <PUBCHEM_BOND_UDEF_STEREO_COUNT>
0

> <PUBCHEM_ISOTOPIC_ATOM_COUNT>
0

> <PUBCHEM_COMPONENT_COUNT>
7

> <PUBCHEM_CACTVS_TAUTO_COUNT>
-1

> <PUBCHEM_COORDINATE_TYPE>
1
5
255

$$$$
509245
  -OEChem-04052116402D

 45 47  0     1  0  0  0  0  0999 V2000
    6.0290   -0.1897    0.0000 O   0  0  0  0  0  0  0  0  0  0  0  0
    6.0174    2.8796    0.0000 O   0  0  0  0  0  0  0  0  0  0  0  0
    4.2690    2.8450    0.0000 O   0  0  0  0  0  0  0  0  0  0  0  0
    2.5369   -0.1550    0.0000 O   0  0  0  0  0  0  0  0  0  0  0  0
   10.3914   -1.6892    0.0000 O   0  0  0  0  0  0  0  0  0  0  0  0
    6.9350    0.3242    0.0000 C   0  0  3  0  0  0  0  0  0  0  0  0
    6.9350    1.3658    0.0000 C   0  0  0  0  0  0  0  0  0  0  0  0
    5.1350    0.3450    0.0000 C   0  0  0  0  0  0  0  0  0  0  0  0
    5.1350    1.3450    0.0000 C   0  0  0  0  0  0  0  0  0  0  0  0
    6.0290    1.8797    0.0000 C   0  0  0  0  0  0  0  0  0  0  0  0
    4.2690   -0.1550    0.0000 C   0  0  0  0  0  0  0  0  0  0  0  0
    7.7991   -0.1792    0.0000 C   0  0  0  0  0  0  0  0  0  0  0  0
    4.2690   -1.1550    0.0000 C   0  0  0  0  0  0  0  0  0  0  0  0
    4.2690    1.8450    0.0000 C   0  0  0  0  0  0  0  0  0  0  0  0
    3.4030    0.3450    0.0000 C   0  0  0  0  0  0  0  0  0  0  0  0
    3.4030    1.3450    0.0000 C   0  0  0  0  0  0  0  0  0  0  0  0
    8.6671    0.3175    0.0000 C   0  0  0  0  0  0  0  0  0  0  0  0
    7.7953   -1.1791    0.0000 C   0  0  0  0  0  0  0  0  0  0  0  0
    3.4030   -1.6550    0.0000 C   0  0  0  0  0  0  0  0  0  0  0  0
    9.5312   -0.1858    0.0000 C   0  0  0  0  0  0  0  0  0  0  0  0
    8.6594   -1.6825    0.0000 C   0  0  0  0  0  0  0  0  0  0  0  0
    3.4030   -2.6550    0.0000 C   0  0  0  0  0  0  0  0  0  0  0  0
    9.5273   -1.1858    0.0000 C   0  0  0  0  0  0  0  0  0  0  0  0
    2.5369   -3.1550    0.0000 C   0  0  0  0  0  0  0  0  0  0  0  0
    4.2690   -3.1550    0.0000 C   0  0  0  0  0  0  0  0  0  0  0  0
    7.4726    0.6331    0.0000 H   0  0  0  0  0  0  0  0  0  0  0  0
    7.5459    1.2597    0.0000 H   0  0  0  0  0  0  0  0  0  0  0  0
    7.1441    1.9495    0.0000 H   0  0  0  0  0  0  0  0  0  0  0  0
    4.4810   -1.7376    0.0000 H   0  0  0  0  0  0  0  0  0  0  0  0
    4.8796   -1.0473    0.0000 H   0  0  0  0  0  0  0  0  0  0  0  0
    2.8660    1.6550    0.0000 H   0  0  0  0  0  0  0  0  0  0  0  0
    8.6694    0.9375    0.0000 H   0  0  0  0  0  0  0  0  0  0  0  0
    7.2571   -1.4871    0.0000 H   0  0  0  0  0  0  0  0  0  0  0  0
    2.8660   -1.3450    0.0000 H   0  0  0  0  0  0  0  0  0  0  0  0
   10.0693    0.1221    0.0000 H   0  0  0  0  0  0  0  0  0  0  0  0
    8.6570   -2.3025    0.0000 H   0  0  0  0  0  0  0  0  0  0  0  0
    3.7320    3.1550    0.0000 H   0  0  0  0  0  0  0  0  0  0  0  0
    2.0000    0.1550    0.0000 H   0  0  0  0  0  0  0  0  0  0  0  0
    2.2269   -2.6181    0.0000 H   0  0  0  0  0  0  0  0  0  0  0  0
    2.0000   -3.4650    0.0000 H   0  0  0  0  0  0  0  0  0  0  0  0
    2.8469   -3.6919    0.0000 H   0  0  0  0  0  0  0  0  0  0  0  0
    3.9590   -3.6919    0.0000 H   0  0  0  0  0  0  0  0  0  0  0  0
    4.8059   -3.4650    0.0000 H   0  0  0  0  0  0  0  0  0  0  0  0
    4.5790   -2.6181    0.0000 H   0  0  0  0  0  0  0  0  0  0  0  0
   10.9295   -1.3812    0.0000 H   0  0  0  0  0  0  0  0  0  0  0  0
  1  6  1  0  0  0  0
  1  8  1  0  0  0  0
  2 10  2  0  0  0  0
  3 14  1  0  0  0  0
  3 37  1  0  0  0  0
  4 15  1  0  0  0  0
  4 38  1  0  0  0  0
  5 23  1  0  0  0  0
  5 45  1  0  0  0  0
  6  7  1  0  0  0  0
  6 12  1  0  0  0  0
  6 26  1  0  0  0  0
  7 10  1  0  0  0  0
  7 27  1  0  0  0  0
  7 28  1  0  0  0  0
  8  9  1  0  0  0  0
  8 11  2  0  0  0  0
  9 10  1  0  0  0  0
  9 14  2  0  0  0  0
 11 13  1  0  0  0  0
 11 15  1  0  0  0  0
 12 17  2  0  0  0  0
 12 18  1  0  0  0  0
 13 19  1  0  0  0  0
 13 29  1  0  0  0  0
 13 30  1  0  0  0  0
 14 16  1  0  0  0  0
 15 16  2  0  0  0  0
 16 31  1  0  0  0  0
 17 20  1  0  0  0  0
 17 32  1  0  0  0  0
 18 21  2  0  0  0  0
 18 33  1  0  0  0  0
 19 22  2  0  0  0  0
 19 34  1  0  0  0  0
 20 23  2  0  0  0  0
 20 35  1  0  0  0  0
 21 23  1  0  0  0  0
 21 36  1  0  0  0  0
 22 24  1  0  0  0  0
 22 25  1  0  0  0  0
 24 39  1  0  0  0  0
 24 40  1  0  0  0  0
 24 41  1  0  0  0  0
 25 42  1  0  0  0  0
 25 43  1  0  0  0  0
 25 44  1  0  0  0  0
M  END
> <PUBCHEM_COMPOUND_CID>
509245

> <PUBCHEM_COMPOUND_CANONICALIZED>
1

> <PUBCHEM_CACTVS_COMPLEXITY>
504

> <PUBCHEM_CACTVS_HBOND_ACCEPTOR>
5

> <PUBCHEM_CACTVS_HBOND_DONOR>
3

> <PUBCHEM_CACTVS_ROTATABLE_BOND>
3

> <PUBCHEM_CACTVS_SUBSKEYS>
AAADceB4OAAAAAAAAAAAAAAAAAAAAAAAAAA0YIAAAAAAAACRQAAAGgAACAAADBSgmAIyBoAABgCIAqBSAAACCAAkIAAIiAEGCMgMJzaGNRqCeWCl4BUIuQeI7OzOIAACCAAIAABAAAQQABAAAAAAAAAAAA==

> <PUBCHEM_IUPAC_OPENEYE_NAME>
5,7-dihydroxy-2-(4-hydroxyphenyl)-8-(3-methylbut-2-enyl)chroman-4-one

> <PUBCHEM_IUPAC_CAS_NAME>
5,7-dihydroxy-2-(4-hydroxyphenyl)-8-(3-methylbut-2-enyl)-3,4-dihydro-2H-1-benzopyran-4-one

> <PUBCHEM_IUPAC_NAME_MARKUP>
5,7-dihydroxy-2-(4-hydroxyphenyl)-8-(3-methylbut-2-enyl)-2,3-dihydrochromen-4-one

> <PUBCHEM_IUPAC_NAME>
5,7-dihydroxy-2-(4-hydroxyphenyl)-8-(3-methylbut-2-enyl)-2,3-dihydrochromen-4-one

> <PUBCHEM_IUPAC_SYSTEMATIC_NAME>
2-(4-hydroxyphenyl)-8-(3-methylbut-2-enyl)-5,7-bis(oxidanyl)-2,3-dihydrochromen-4-one

> <PUBCHEM_IUPAC_TRADITIONAL_NAME>
5,7-dihydroxy-2-(4-hydroxyphenyl)-8-(3-methylbut-2-enyl)chroman-4-one

> <PUBCHEM_IUPAC_INCHI>
InChI=1S/C20H20O5/c1-11(2)3-8-14-15(22)9-16(23)19-17(24)10-18(25-20(14)19)12-4-6-13(21)7-5-12/h3-7,9,18,21-23H,8,10H2,1-2H3

> <PUBCHEM_IUPAC_INCHIKEY>
LPEPZZAVFJPLNZ-UHFFFAOYSA-N

> <PUBCHEM_XLOGP3_AA>
4.3

> <PUBCHEM_EXACT_MASS>
340.131074

> <PUBCHEM_MOLECULAR_FORMULA>
C20H20O5

> <PUBCHEM_MOLECULAR_WEIGHT>
340.4

> <PUBCHEM_OPENEYE_CAN_SMILES>
CC(=CCC1=C2C(=C(C=C1O)O)C(=O)CC(O2)C3=CC=C(C=C3)O)C

> <PUBCHEM_OPENEYE_ISO_SMILES>
CC(=CCC1=C2C(=C(C=C1O)O)C(=O)CC(O2)C3=CC=C(C=C3)O)C

> <PUBCHEM_CACTVS_TPSA>
87

> <PUBCHEM_MONOISOTOPIC_WEIGHT>
340.131074

> <PUBCHEM_TOTAL_CHARGE>
0

> <PUBCHEM_HEAVY_ATOM_COUNT>
25

> <PUBCHEM_ATOM_DEF_STEREO_COUNT>
0

> <PUBCHEM_ATOM_UDEF_STEREO_COUNT>
1

> <PUBCHEM_BOND_DEF_STEREO_COUNT>
0

> <PUBCHEM_BOND_UDEF_STEREO_COUNT>
0

> <PUBCHEM_ISOTOPIC_ATOM_COUNT>
0

> <PUBCHEM_COMPONENT_COUNT>
1

> <PUBCHEM_CACTVS_TAUTO_COUNT>
-1

> <PUBCHEM_COORDINATE_TYPE>
1
5
255

> <PUBCHEM_BONDANNOTATIONS>
11  15  8
12  17  8
12  18  8
14  16  8
15  16  8
17  20  8
18  21  8
20  23  8
21  23  8
6  12  3
8  11  8
8  9  8
9  14  8

$$$$
449093
  -OEChem-04052116402D

 29 30  0     0  0  0  0  0  0999 V2000
    2.0000    2.9400    0.0000 O   0  0  0  0  0  0  0  0  0  0  0  0
    4.5981   -0.5600    0.0000 N   0  0  0  0  0  0  0  0  0  0  0  0
    6.4103   -1.7553    0.0000 N   0  0  0  0  0  0  0  0  0  0  0  0
    3.7320   -2.0600    0.0000 N   0  0  0  0  0  0  0  0  0  0  0  0
    6.4103   -3.3647    0.0000 N   0  0  0  0  0  0  0  0  0  0  0  0
    4.5981   -3.5600    0.0000 N   0  0  0  0  0  0  0  0  0  0  0  0
    5.4641   -2.0600    0.0000 C   0  0  0  0  0  0  0  0  0  0  0  0
    3.7320   -0.0600    0.0000 C   0  0  0  0  0  0  0  0  0  0  0  0
    4.5981   -1.5600    0.0000 C   0  0  0  0  0  0  0  0  0  0  0  0
    3.7320    0.9400    0.0000 C   0  0  0  0  0  0  0  0  0  0  0  0
    5.4641   -3.0600    0.0000 C   0  0  0  0  0  0  0  0  0  0  0  0
    2.8660    1.4400    0.0000 C   0  0  0  0  0  0  0  0  0  0  0  0
    2.8660    2.4400    0.0000 C   0  0  0  0  0  0  0  0  0  0  0  0
    6.9939   -2.5600    0.0000 C   0  0  0  0  0  0  0  0  0  0  0  0
    2.0000    0.9400    0.0000 C   0  0  0  0  0  0  0  0  0  0  0  0
    3.7320   -3.0600    0.0000 C   0  0  0  0  0  0  0  0  0  0  0  0
    3.1215    0.0477    0.0000 H   0  0  0  0  0  0  0  0  0  0  0  0
    3.5200   -0.6426    0.0000 H   0  0  0  0  0  0  0  0  0  0  0  0
    5.1350   -0.2500    0.0000 H   0  0  0  0  0  0  0  0  0  0  0  0
    4.2690    1.2500    0.0000 H   0  0  0  0  0  0  0  0  0  0  0  0
    6.6029   -1.1660    0.0000 H   0  0  0  0  0  0  0  0  0  0  0  0
    3.4766    2.3323    0.0000 H   0  0  0  0  0  0  0  0  0  0  0  0
    3.0781    3.0226    0.0000 H   0  0  0  0  0  0  0  0  0  0  0  0
    7.6139   -2.5600    0.0000 H   0  0  0  0  0  0  0  0  0  0  0  0
    1.6900    1.4769    0.0000 H   0  0  0  0  0  0  0  0  0  0  0  0
    1.4631    0.6300    0.0000 H   0  0  0  0  0  0  0  0  0  0  0  0
    2.3100    0.4031    0.0000 H   0  0  0  0  0  0  0  0  0  0  0  0
    3.1951   -3.3700    0.0000 H   0  0  0  0  0  0  0  0  0  0  0  0
    2.0000    3.5600    0.0000 H   0  0  0  0  0  0  0  0  0  0  0  0
  1 13  1  0  0  0  0
  1 29  1  0  0  0  0
  2  8  1  0  0  0  0
  2  9  1  0  0  0  0
  2 19  1  0  0  0  0
  3  7  1  0  0  0  0
  3 14  1  0  0  0  0
  3 21  1  0  0  0  0
  4  9  2  0  0  0  0
  4 16  1  0  0  0  0
  5 11  1  0  0  0  0
  5 14  2  0  0  0  0
  6 11  1  0  0  0  0
  6 16  2  0  0  0  0
  7  9  1  0  0  0  0
  7 11  2  0  0  0  0
  8 10  1  0  0  0  0
  8 17  1  0  0  0  0
  8 18  1  0  0  0  0
 10 12  2  0  0  0  0
 10 20  1  0  0  0  0
 12 13  1  0  0  0  0
 12 15  1  0  0  0  0
 13 22  1  0  0  0  0
 13 23  1  0  0  0  0
 14 24  1  0  0  0  0
 15 25  1  0  0  0  0
 15 26  1  0  0  0  0
 15 27  1  0  0  0  0
 16 28  1  0  0  0  0
M  END
> <PUBCHEM_COMPOUND_CID>
449093

> <PUBCHEM_COMPOUND_CANONICALIZED>
1

> <PUBCHEM_CACTVS_COMPLEXITY>
258

> <PUBCHEM_CACTVS_HBOND_ACCEPTOR>
5

> <PUBCHEM_CACTVS_HBOND_DONOR>
3

> <PUBCHEM_CACTVS_ROTATABLE_BOND>
4

> <PUBCHEM_CACTVS_SUBSKEYS>
AAADccBzoAAAAAAAAAAAAAAAAAAAAWAAAAAsAAAAAAAAAFgB+AAAHgAQCAAADAjhlwYH8L7JkgCgAyZjZACAgC2REKABWaAoVBCAXABASUAUVAgIEALAECAAAAAAAAAAAAAAAAAAAAAAAAAAAAAAAAAAAA==

> <PUBCHEM_IUPAC_OPENEYE_NAME>
(E)-2-methyl-4-(7H-purin-6-ylamino)but-2-en-1-ol

> <PUBCHEM_IUPAC_CAS_NAME>
(E)-2-methyl-4-(7H-purin-6-ylamino)-2-buten-1-ol

> <PUBCHEM_IUPAC_NAME_MARKUP>
(<I>E</I>)-2-methyl-4-(7<I>H</I>-purin-6-ylamino)but-2-en-1-ol

> <PUBCHEM_IUPAC_NAME>
(E)-2-methyl-4-(7H-purin-6-ylamino)but-2-en-1-ol

> <PUBCHEM_IUPAC_SYSTEMATIC_NAME>
(E)-2-methyl-4-(7H-purin-6-ylamino)but-2-en-1-ol

> <PUBCHEM_IUPAC_TRADITIONAL_NAME>
(E)-2-methyl-4-(7H-purin-6-ylamino)but-2-en-1-ol

> <PUBCHEM_IUPAC_INCHI>
InChI=1S/C10H13N5O/c1-7(4-16)2-3-11-9-8-10(13-5-12-8)15-6-14-9/h2,5-6,16H,3-4H2,1H3,(H2,11,12,13,14,15)/b7-2+

> <PUBCHEM_IUPAC_INCHIKEY>
UZKQTCBAMSWPJD-FARCUNLSSA-N

> <PUBCHEM_XLOGP3_AA>
0.7

> <PUBCHEM_EXACT_MASS>
219.11201

> <PUBCHEM_MOLECULAR_FORMULA>
C10H13N5O

> <PUBCHEM_MOLECULAR_WEIGHT>
219.24

> <PUBCHEM_OPENEYE_CAN_SMILES>
CC(=CCNC1=NC=NC2=C1NC=N2)CO

> <PUBCHEM_OPENEYE_ISO_SMILES>
C/C(=C\CNC1=NC=NC2=C1NC=N2)/CO

> <PUBCHEM_CACTVS_TPSA>
86.7

> <PUBCHEM_MONOISOTOPIC_WEIGHT>
219.11201

> <PUBCHEM_TOTAL_CHARGE>
0

> <PUBCHEM_HEAVY_ATOM_COUNT>
16

> <PUBCHEM_ATOM_DEF_STEREO_COUNT>
0

> <PUBCHEM_ATOM_UDEF_STEREO_COUNT>
0

> <PUBCHEM_BOND_DEF_STEREO_COUNT>
1

> <PUBCHEM_BOND_UDEF_STEREO_COUNT>
0

> <PUBCHEM_ISOTOPIC_ATOM_COUNT>
0

> <PUBCHEM_COMPONENT_COUNT>
1

> <PUBCHEM_CACTVS_TAUTO_COUNT>
-1

> <PUBCHEM_COORDINATE_TYPE>
1
5
255

> <PUBCHEM_BONDANNOTATIONS>
3  14  8
3  7  8
4  16  8
4  9  8
5  11  8
5  14  8
6  11  8
6  16  8
7  11  8
7  9  8

$$$$
441564
  -OEChem-04052116402D

 38 40  0     1  0  0  0  0  0999 V2000
    5.1350    0.0158    0.0000 O   0  0  0  0  0  0  0  0  0  0  0  0
    6.8671    0.0158    0.0000 O   0  0  0  0  0  0  0  0  0  0  0  0
    5.1350   -2.9842    0.0000 O   0  0  0  0  0  0  0  0  0  0  0  0
    3.4030   -1.9842    0.0000 O   0  0  0  0  0  0  0  0  0  0  0  0
    6.8671   -1.9842    0.0000 O   0  0  0  0  0  0  0  0  0  0  0  0
    2.5369   -0.4842    0.0000 O   0  0  0  0  0  0  0  0  0  0  0  0
    6.3671    2.5456    0.0000 N   0  0  0  0  0  0  0  0  0  0  0  0
    5.1350   -1.9842    0.0000 C   0  0  1  0  0  0  0  0  0  0  0  0
    4.2690   -1.4842    0.0000 C   0  0  1  0  0  0  0  0  0  0  0  0
    6.0010   -1.4842    0.0000 C   0  0  2  0  0  0  0  0  0  0  0  0
    4.2690   -0.4842    0.0000 C   0  0  1  0  0  0  0  0  0  0  0  0
    6.0010   -0.4842    0.0000 C   0  0  1  0  0  0  0  0  0  0  0  0
    3.4030    0.0158    0.0000 C   0  0  0  0  0  0  0  0  0  0  0  0
    6.8671    1.0158    0.0000 C   0  0  0  0  0  0  0  0  0  0  0  0
    7.6718    1.5994    0.0000 C   0  0  0  0  0  0  0  0  0  0  0  0
    7.3611    2.5499    0.0000 C   0  0  0  0  0  0  0  0  0  0  0  0
    6.0623    1.5994    0.0000 C   0  0  0  0  0  0  0  0  0  0  0  0
    8.6503    1.3932    0.0000 C   0  0  0  0  0  0  0  0  0  0  0  0
    8.0290    3.2942    0.0000 C   0  0  0  0  0  0  0  0  0  0  0  0
    9.3181    2.1375    0.0000 C   0  0  0  0  0  0  0  0  0  0  0  0
    9.0075    3.0880    0.0000 C   0  0  0  0  0  0  0  0  0  0  0  0
    4.5981   -2.2942    0.0000 H   0  0  0  0  0  0  0  0  0  0  0  0
    4.2690   -2.1042    0.0000 H   0  0  0  0  0  0  0  0  0  0  0  0
    6.0010   -2.1042    0.0000 H   0  0  0  0  0  0  0  0  0  0  0  0
    4.2690    0.1358    0.0000 H   0  0  0  0  0  0  0  0  0  0  0  0
    6.0010    0.1358    0.0000 H   0  0  0  0  0  0  0  0  0  0  0  0
    3.8015    0.4907    0.0000 H   0  0  0  0  0  0  0  0  0  0  0  0
    3.0044    0.4907    0.0000 H   0  0  0  0  0  0  0  0  0  0  0  0
    4.5981   -3.2942    0.0000 H   0  0  0  0  0  0  0  0  0  0  0  0
    3.4030   -2.6042    0.0000 H   0  0  0  0  0  0  0  0  0  0  0  0
    6.8671   -2.6042    0.0000 H   0  0  0  0  0  0  0  0  0  0  0  0
    5.4730    1.4068    0.0000 H   0  0  0  0  0  0  0  0  0  0  0  0
    2.0000   -0.1742    0.0000 H   0  0  0  0  0  0  0  0  0  0  0  0
    6.0009    3.0459    0.0000 H   0  0  0  0  0  0  0  0  0  0  0  0
    8.8429    0.8039    0.0000 H   0  0  0  0  0  0  0  0  0  0  0  0
    7.8364    3.8835    0.0000 H   0  0  0  0  0  0  0  0  0  0  0  0
    9.9248    2.0096    0.0000 H   0  0  0  0  0  0  0  0  0  0  0  0
    9.4216    3.5495    0.0000 H   0  0  0  0  0  0  0  0  0  0  0  0
  1 11  1  0  0  0  0
  1 12  1  0  0  0  0
 12  2  1  1  0  0  0
  2 14  1  0  0  0  0
  8  3  1  1  0  0  0
  3 29  1  0  0  0  0
  9  4  1  6  0  0  0
  4 30  1  0  0  0  0
 10  5  1  6  0  0  0
  5 31  1  0  0  0  0
  6 13  1  0  0  0  0
  6 33  1  0  0  0  0
  7 16  1  0  0  0  0
  7 17  1  0  0  0  0
  7 34  1  0  0  0  0
  8  9  1  0  0  0  0
  8 10  1  0  0  0  0
  8 22  1  0  0  0  0
  9 11  1  0  0  0  0
  9 23  1  0  0  0  0
 10 12  1  0  0  0  0
 10 24  1  0  0  0  0
 11 13  1  1  0  0  0
 11 25  1  0  0  0  0
 12 26  1  0  0  0  0
 13 27  1  0  0  0  0
 13 28  1  0  0  0  0
 14 15  1  0  0  0  0
 14 17  2  0  0  0  0
 15 16  1  0  0  0  0
 15 18  2  0  0  0  0
 16 19  2  0  0  0  0
 17 32  1  0  0  0  0
 18 20  1  0  0  0  0
 18 35  1  0  0  0  0
 19 21  1  0  0  0  0
 19 36  1  0  0  0  0
 20 21  2  0  0  0  0
 20 37  1  0  0  0  0
 21 38  1  0  0  0  0
M  END
> <PUBCHEM_COMPOUND_CID>
441564

> <PUBCHEM_COMPOUND_CANONICALIZED>
1

> <PUBCHEM_CACTVS_COMPLEXITY>
356

> <PUBCHEM_CACTVS_HBOND_ACCEPTOR>
6

> <PUBCHEM_CACTVS_HBOND_DONOR>
5

> <PUBCHEM_CACTVS_ROTATABLE_BOND>
3

> <PUBCHEM_CACTVS_SUBSKEYS>
AAADceByOAAAAAAAAAAAAAAAAAAAAWAAAAA0QAAAAAAAAFgB8AAAHgAQCAAADBzxngc8zvLJlgCgAzRnRASCiCAxYiAI2aA/bJgfNuLEsZuneCjn0Bnf6AfQ4KwOAAAAAAACAAAAAAAAAAQAAAAAAAAAAA==

> <PUBCHEM_IUPAC_OPENEYE_NAME>
(2R,3S,4S,5R,6S)-2-(hydroxymethyl)-6-(1H-indol-3-yloxy)tetrahydropyran-3,4,5-triol

> <PUBCHEM_IUPAC_CAS_NAME>
(2R,3S,4S,5R,6S)-2-(hydroxymethyl)-6-(1H-indol-3-yloxy)oxane-3,4,5-triol

> <PUBCHEM_IUPAC_NAME_MARKUP>
(2<I>R</I>,3<I>S</I>,4<I>S</I>,5<I>R</I>,6<I>S</I>)-2-(hydroxymethyl)-6-(1<I>H</I>-indol-3-yloxy)oxane-3,4,5-triol

> <PUBCHEM_IUPAC_NAME>
(2R,3S,4S,5R,6S)-2-(hydroxymethyl)-6-(1H-indol-3-yloxy)oxane-3,4,5-triol

> <PUBCHEM_IUPAC_SYSTEMATIC_NAME>
(2R,3S,4S,5R,6S)-2-(hydroxymethyl)-6-(1H-indol-3-yloxy)oxane-3,4,5-triol

> <PUBCHEM_IUPAC_TRADITIONAL_NAME>
(2S,3R,4S,5S,6R)-2-(1H-indol-3-yloxy)-6-methylol-tetrahydropyran-3,4,5-triol

> <PUBCHEM_IUPAC_INCHI>
InChI=1S/C14H17NO6/c16-6-10-11(17)12(18)13(19)14(21-10)20-9-5-15-8-4-2-1-3-7(8)9/h1-5,10-19H,6H2/t10-,11-,12+,13-,14-/m1/s1

> <PUBCHEM_IUPAC_INCHIKEY>
XVARCVCWNFACQC-RKQHYHRCSA-N

> <PUBCHEM_XLOGP3_AA>
-0.1

> <PUBCHEM_EXACT_MASS>
295.105587

> <PUBCHEM_MOLECULAR_FORMULA>
C14H17NO6

> <PUBCHEM_MOLECULAR_WEIGHT>
295.29

> <PUBCHEM_OPENEYE_CAN_SMILES>
C1=CC=C2C(=C1)C(=CN2)OC3C(C(C(C(O3)CO)O)O)O

> <PUBCHEM_OPENEYE_ISO_SMILES>
C1=CC=C2C(=C1)C(=CN2)O[C@H]3[C@@H]([C@H]([C@@H]([C@H](O3)CO)O)O)O

> <PUBCHEM_CACTVS_TPSA>
115

> <PUBCHEM_MONOISOTOPIC_WEIGHT>
295.105587

> <PUBCHEM_TOTAL_CHARGE>
0

> <PUBCHEM_HEAVY_ATOM_COUNT>
21

> <PUBCHEM_ATOM_DEF_STEREO_COUNT>
5

> <PUBCHEM_ATOM_UDEF_STEREO_COUNT>
0

> <PUBCHEM_BOND_DEF_STEREO_COUNT>
0

> <PUBCHEM_BOND_UDEF_STEREO_COUNT>
0

> <PUBCHEM_ISOTOPIC_ATOM_COUNT>
0

> <PUBCHEM_COMPONENT_COUNT>
1

> <PUBCHEM_CACTVS_TAUTO_COUNT>
-1

> <PUBCHEM_COORDINATE_TYPE>
1
5
255

> <PUBCHEM_BONDANNOTATIONS>
11  13  5
14  15  8
14  17  8
15  16  8
15  18  8
16  19  8
18  20  8
19  21  8
12  2  5
20  21  8
8  3  5
9  4  6
10  5  6
7  16  8
7  17  8

$$$$
441457
  -OEChem-04052116402D

 24 24  0     1  0  0  0  0  0999 V2000
    2.0000    1.0950    0.0000 O   0  0  0  0  0  0  0  0  0  0  0  0
    3.7320    2.0950    0.0000 N   0  0  0  0  0  0  0  0  0  0  0  0
    2.8660    0.5950    0.0000 C   0  0  2  0  0  0  0  0  0  0  0  0
    3.7320    1.0950    0.0000 C   0  0  2  0  0  0  0  0  0  0  0  0
    2.8660   -0.4050    0.0000 C   0  0  0  0  0  0  0  0  0  0  0  0
    4.5981    0.5950    0.0000 C   0  0  0  0  0  0  0  0  0  0  0  0
    2.0000   -0.9050    0.0000 C   0  0  0  0  0  0  0  0  0  0  0  0
    3.7320   -0.9050    0.0000 C   0  0  0  0  0  0  0  0  0  0  0  0
    2.0000   -1.9050    0.0000 C   0  0  0  0  0  0  0  0  0  0  0  0
    3.7320   -1.9050    0.0000 C   0  0  0  0  0  0  0  0  0  0  0  0
    2.8660   -2.4050    0.0000 C   0  0  0  0  0  0  0  0  0  0  0  0
    2.8660    1.2150    0.0000 H   0  0  0  0  0  0  0  0  0  0  0  0
    4.2690    1.4050    0.0000 H   0  0  0  0  0  0  0  0  0  0  0  0
    4.2881    0.0581    0.0000 H   0  0  0  0  0  0  0  0  0  0  0  0
    5.1350    0.2850    0.0000 H   0  0  0  0  0  0  0  0  0  0  0  0
    4.9081    1.1319    0.0000 H   0  0  0  0  0  0  0  0  0  0  0  0
    1.4631   -0.5950    0.0000 H   0  0  0  0  0  0  0  0  0  0  0  0
    4.2690   -0.5950    0.0000 H   0  0  0  0  0  0  0  0  0  0  0  0
    4.2690    2.4050    0.0000 H   0  0  0  0  0  0  0  0  0  0  0  0
    3.1951    2.4050    0.0000 H   0  0  0  0  0  0  0  0  0  0  0  0
    2.0000    1.7150    0.0000 H   0  0  0  0  0  0  0  0  0  0  0  0
    1.4631   -2.2150    0.0000 H   0  0  0  0  0  0  0  0  0  0  0  0
    4.2690   -2.2150    0.0000 H   0  0  0  0  0  0  0  0  0  0  0  0
    2.8660   -3.0250    0.0000 H   0  0  0  0  0  0  0  0  0  0  0  0
  3  1  1  6  0  0  0
  1 21  1  0  0  0  0
  4  2  1  1  0  0  0
  2 19  1  0  0  0  0
  2 20  1  0  0  0  0
  3  4  1  0  0  0  0
  3  5  1  0  0  0  0
  3 12  1  0  0  0  0
  4  6  1  0  0  0  0
  4 13  1  0  0  0  0
  5  7  2  0  0  0  0
  5  8  1  0  0  0  0
  6 14  1  0  0  0  0
  6 15  1  0  0  0  0
  6 16  1  0  0  0  0
  7  9  1  0  0  0  0
  7 17  1  0  0  0  0
  8 10  2  0  0  0  0
  8 18  1  0  0  0  0
  9 11  2  0  0  0  0
  9 22  1  0  0  0  0
 10 11  1  0  0  0  0
 10 23  1  0  0  0  0
 11 24  1  0  0  0  0
M  END
> <PUBCHEM_COMPOUND_CID>
441457

> <PUBCHEM_COMPOUND_CANONICALIZED>
1

> <PUBCHEM_CACTVS_COMPLEXITY>
110

> <PUBCHEM_CACTVS_HBOND_ACCEPTOR>
2

> <PUBCHEM_CACTVS_HBOND_DONOR>
2

> <PUBCHEM_CACTVS_ROTATABLE_BOND>
2

> <PUBCHEM_CACTVS_SUBSKEYS>
AAADccByIAAAAAAAAAAAAAAAAAAAAAAAAAAwAAAAAAAAAAABAAAAHgAQCAAADDzhmAYyAIBAAgCAAiBCAAACAAAgAAAIiIAACIgKNiKAkRGAcAAk0AEImAeQwKAOAAAAAAAAAAAAAAAAAAAAAAAAAAAAAA==

> <PUBCHEM_IUPAC_OPENEYE_NAME>
(1S,2S)-2-amino-1-phenyl-propan-1-ol

> <PUBCHEM_IUPAC_CAS_NAME>
(1S,2S)-2-amino-1-phenyl-1-propanol

> <PUBCHEM_IUPAC_NAME_MARKUP>
(1<I>S</I>,2<I>S</I>)-2-amino-1-phenylpropan-1-ol

> <PUBCHEM_IUPAC_NAME>
(1S,2S)-2-amino-1-phenylpropan-1-ol

> <PUBCHEM_IUPAC_SYSTEMATIC_NAME>
(1S,2S)-2-azanyl-1-phenyl-propan-1-ol

> <PUBCHEM_IUPAC_TRADITIONAL_NAME>
(1S,2S)-2-amino-1-phenyl-propan-1-ol

> <PUBCHEM_IUPAC_INCHI>
InChI=1S/C9H13NO/c1-7(10)9(11)8-5-3-2-4-6-8/h2-7,9,11H,10H2,1H3/t7-,9+/m0/s1

> <PUBCHEM_IUPAC_INCHIKEY>
DLNKOYKMWOXYQA-IONNQARKSA-N

> <PUBCHEM_XLOGP3>
0.8

> <PUBCHEM_EXACT_MASS>
151.099714

> <PUBCHEM_MOLECULAR_FORMULA>
C9H13NO

> <PUBCHEM_MOLECULAR_WEIGHT>
151.21

> <PUBCHEM_OPENEYE_CAN_SMILES>
CC(C(C1=CC=CC=C1)O)N

> <PUBCHEM_OPENEYE_ISO_SMILES>
C[C@@H]([C@H](C1=CC=CC=C1)O)N

> <PUBCHEM_CACTVS_TPSA>
46.2

> <PUBCHEM_MONOISOTOPIC_WEIGHT>
151.099714

> <PUBCHEM_TOTAL_CHARGE>
0

> <PUBCHEM_HEAVY_ATOM_COUNT>
11

> <PUBCHEM_ATOM_DEF_STEREO_COUNT>
2

> <PUBCHEM_ATOM_UDEF_STEREO_COUNT>
0

> <PUBCHEM_BOND_DEF_STEREO_COUNT>
0

> <PUBCHEM_BOND_UDEF_STEREO_COUNT>
0

> <PUBCHEM_ISOTOPIC_ATOM_COUNT>
0

> <PUBCHEM_COMPONENT_COUNT>
1

> <PUBCHEM_CACTVS_TAUTO_COUNT>
-1

> <PUBCHEM_COORDINATE_TYPE>
1
5
255

> <PUBCHEM_BONDANNOTATIONS>
3  1  6
10  11  8
4  2  5
5  7  8
5  8  8
7  9  8
8  10  8
9  11  8

$$$$
441374
  -OEChem-04052116402D

 76 77  0     1  0  0  0  0  0999 V2000
   10.7140    5.1923    0.0000 S   0  0  0  0  0  0  0  0  0  0  0  0
    3.3100    6.3100    0.0000 O   0  0  0  0  0  0  0  0  0  0  0  0
    5.0420    3.3100    0.0000 O   0  0  0  0  0  0  0  0  0  0  0  0
    3.3100    4.3100    0.0000 O   0  0  0  0  0  0  0  0  0  0  0  0
    3.3100    8.0420    0.0000 O   0  0  0  0  0  0  0  0  0  0  0  0
    3.3100    3.3100    0.0000 O   0  0  0  0  0  0  0  0  0  0  0  0
    1.3100    6.3100    0.0000 O   0  0  0  0  0  0  0  0  0  0  0  0
    5.0420    1.3100    0.0000 O   0  0  0  0  0  0  0  0  0  0  0  0
    1.3100    9.7741    0.0000 O   0  0  0  0  0  0  0  0  0  0  0  0
    3.3100    0.3100    0.0000 O   0  0  0  0  0  0  0  0  0  0  0  0
    1.5780    1.3100    0.0000 O   0  0  0  0  0  0  0  0  0  0  0  0
    4.3100    9.7741    0.0000 O   0  0  0  0  0  0  0  0  0  0  0  0
   11.5800    5.6923    0.0000 O   0  0  0  0  0  0  0  0  0  0  0  0
    9.8480    4.6923    0.0000 O   0  0  0  0  0  0  0  0  0  0  0  0
   10.2140    6.0584    0.0000 O   0  0  0  0  0  0  0  0  0  0  0  0
   11.2140    4.3263    0.0000 O   0  0  0  0  0  0  0  0  0  0  0  0
    5.5420    7.1760    0.0000 N   0  0  0  0  0  0  0  0  0  0  0  0
    6.7741    4.3100    0.0000 N   0  0  0  0  0  0  0  0  0  0  0  0
    0.3100    8.0420    0.0000 N   0  0  0  0  0  0  0  0  0  0  0  0
    0.7119    2.8100    0.0000 N   0  0  0  0  0  0  0  0  0  0  0  0
    4.1760    5.8100    0.0000 C   0  0  2  0  0  0  0  0  0  0  0  0
    5.0420    4.3100    0.0000 C   0  0  1  0  0  0  0  0  0  0  0  0
    4.1760    4.8100    0.0000 C   0  0  2  0  0  0  0  0  0  0  0  0
    5.0420    6.3100    0.0000 C   0  0  1  0  0  0  0  0  0  0  0  0
    5.9081    4.8100    0.0000 C   0  0  2  0  0  0  0  0  0  0  0  0
    5.9081    5.8100    0.0000 C   0  0  0  0  0  0  0  0  0  0  0  0
    2.8100    7.1760    0.0000 C   0  0  1  0  0  0  0  0  0  0  0  0
    4.1760    2.8100    0.0000 C   0  0  1  0  0  0  0  0  0  0  0  0
    1.8100    7.1760    0.0000 C   0  0  1  0  0  0  0  0  0  0  0  0
    1.3100    8.0420    0.0000 C   0  0  2  0  0  0  0  0  0  0  0  0
    4.1760    1.8100    0.0000 C   0  0  1  0  0  0  0  0  0  0  0  0
    1.8100    8.9081    0.0000 C   0  0  1  0  0  0  0  0  0  0  0  0
    3.3100    1.3100    0.0000 C   0  0  2  0  0  0  0  0  0  0  0  0
    2.8100    8.9081    0.0000 C   0  0  1  0  0  0  0  0  0  0  0  0
    2.4440    1.8100    0.0000 C   0  0  1  0  0  0  0  0  0  0  0  0
    2.4440    2.8100    0.0000 C   0  0  1  0  0  0  0  0  0  0  0  0
    3.3100    9.7741    0.0000 C   0  0  0  0  0  0  0  0  0  0  0  0
    1.5780    3.3100    0.0000 C   0  0  0  0  0  0  0  0  0  0  0  0
    4.1760    6.4300    0.0000 H   0  0  0  0  0  0  0  0  0  0  0  0
    5.5790    4.0000    0.0000 H   0  0  0  0  0  0  0  0  0  0  0  0
    4.1760    4.1900    0.0000 H   0  0  0  0  0  0  0  0  0  0  0  0
    4.6036    6.7484    0.0000 H   0  0  0  0  0  0  0  0  0  0  0  0
    6.4450    5.1200    0.0000 H   0  0  0  0  0  0  0  0  0  0  0  0
    6.5187    5.7023    0.0000 H   0  0  0  0  0  0  0  0  0  0  0  0
    6.1201    6.3926    0.0000 H   0  0  0  0  0  0  0  0  0  0  0  0
    2.5000    6.6391    0.0000 H   0  0  0  0  0  0  0  0  0  0  0  0
    4.1760    3.4300    0.0000 H   0  0  0  0  0  0  0  0  0  0  0  0
    1.1900    7.1760    0.0000 H   0  0  0  0  0  0  0  0  0  0  0  0
    1.0000    8.5790    0.0000 H   0  0  0  0  0  0  0  0  0  0  0  0
    4.7130    2.1200    0.0000 H   0  0  0  0  0  0  0  0  0  0  0  0
    2.1200    9.4450    0.0000 H   0  0  0  0  0  0  0  0  0  0  0  0
    3.8469    1.0000    0.0000 H   0  0  0  0  0  0  0  0  0  0  0  0
    6.1620    7.1760    0.0000 H   0  0  0  0  0  0  0  0  0  0  0  0
    5.2320    7.7130    0.0000 H   0  0  0  0  0  0  0  0  0  0  0  0
    7.3110    4.6200    0.0000 H   0  0  0  0  0  0  0  0  0  0  0  0
    6.7741    3.6900    0.0000 H   0  0  0  0  0  0  0  0  0  0  0  0
    3.4300    8.9081    0.0000 H   0  0  0  0  0  0  0  0  0  0  0  0
    2.4440    1.1900    0.0000 H   0  0  0  0  0  0  0  0  0  0  0  0
    2.4440    3.4300    0.0000 H   0  0  0  0  0  0  0  0  0  0  0  0
    2.7731    4.6200    0.0000 H   0  0  0  0  0  0  0  0  0  0  0  0
    1.9765    3.7850    0.0000 H   0  0  0  0  0  0  0  0  0  0  0  0
    1.1794    3.7850    0.0000 H   0  0  0  0  0  0  0  0  0  0  0  0
    3.4177   10.3847    0.0000 H   0  0  0  0  0  0  0  0  0  0  0  0
    2.7274    9.9862    0.0000 H   0  0  0  0  0  0  0  0  0  0  0  0
    0.0000    8.5790    0.0000 H   0  0  0  0  0  0  0  0  0  0  0  0
    0.0000    7.5051    0.0000 H   0  0  0  0  0  0  0  0  0  0  0  0
    0.6900    6.3100    0.0000 H   0  0  0  0  0  0  0  0  0  0  0  0
    5.0420    0.6900    0.0000 H   0  0  0  0  0  0  0  0  0  0  0  0
    1.6200   10.3110    0.0000 H   0  0  0  0  0  0  0  0  0  0  0  0
    2.7731    0.0000    0.0000 H   0  0  0  0  0  0  0  0  0  0  0  0
    1.5780    0.6900    0.0000 H   0  0  0  0  0  0  0  0  0  0  0  0
    0.1750    3.1200    0.0000 H   0  0  0  0  0  0  0  0  0  0  0  0
    0.7119    2.1900    0.0000 H   0  0  0  0  0  0  0  0  0  0  0  0
    4.6200   10.3110    0.0000 H   0  0  0  0  0  0  0  0  0  0  0  0
   12.1170    5.3823    0.0000 H   0  0  0  0  0  0  0  0  0  0  0  0
    9.3110    5.0023    0.0000 H   0  0  0  0  0  0  0  0  0  0  0  0
  1 13  1  0  0  0  0
  1 14  1  0  0  0  0
  1 15  2  0  0  0  0
  1 16  2  0  0  0  0
 21  2  1  1  0  0  0
 27  2  1  6  0  0  0
 22  3  1  1  0  0  0
 28  3  1  6  0  0  0
 23  4  1  6  0  0  0
  4 60  1  0  0  0  0
  5 27  1  0  0  0  0
  5 34  1  0  0  0  0
  6 28  1  0  0  0  0
  6 36  1  0  0  0  0
 29  7  1  6  0  0  0
  7 67  1  0  0  0  0
 31  8  1  6  0  0  0
  8 68  1  0  0  0  0
 32  9  1  6  0  0  0
  9 69  1  0  0  0  0
 33 10  1  1  0  0  0
 10 70  1  0  0  0  0
 35 11  1  6  0  0  0
 11 71  1  0  0  0  0
 12 37  1  0  0  0  0
 12 74  1  0  0  0  0
 13 75  1  0  0  0  0
 14 76  1  0  0  0  0
 24 17  1  6  0  0  0
 17 53  1  0  0  0  0
 17 54  1  0  0  0  0
 25 18  1  6  0  0  0
 18 55  1  0  0  0  0
 18 56  1  0  0  0  0
 30 19  1  1  0  0  0
 19 65  1  0  0  0  0
 19 66  1  0  0  0  0
 20 38  1  0  0  0  0
 20 72  1  0  0  0  0
 20 73  1  0  0  0  0
 21 23  1  0  0  0  0
 21 24  1  0  0  0  0
 21 39  1  0  0  0  0
 22 23  1  0  0  0  0
 22 25  1  0  0  0  0
 22 40  1  0  0  0  0
 23 41  1  0  0  0  0
 24 26  1  0  0  0  0
 24 42  1  0  0  0  0
 25 26  1  0  0  0  0
 25 43  1  0  0  0  0
 26 44  1  0  0  0  0
 26 45  1  0  0  0  0
 27 29  1  0  0  0  0
 27 46  1  0  0  0  0
 28 31  1  0  0  0  0
 28 47  1  0  0  0  0
 29 30  1  0  0  0  0
 29 48  1  0  0  0  0
 30 32  1  0  0  0  0
 30 49  1  0  0  0  0
 31 33  1  0  0  0  0
 31 50  1  0  0  0  0
 32 34  1  0  0  0  0
 32 51  1  0  0  0  0
 33 35  1  0  0  0  0
 33 52  1  0  0  0  0
 34 37  1  1  0  0  0
 34 57  1  0  0  0  0
 35 36  1  0  0  0  0
 35 58  1  0  0  0  0
 36 38  1  1  0  0  0
 36 59  1  0  0  0  0
 37 63  1  0  0  0  0
 37 64  1  0  0  0  0
 38 61  1  0  0  0  0
 38 62  1  0  0  0  0
M  END
> <PUBCHEM_COMPOUND_CID>
441374

> <PUBCHEM_COMPOUND_CANONICALIZED>
1

> <PUBCHEM_CACTVS_COMPLEXITY>
720

> <PUBCHEM_CACTVS_HBOND_ACCEPTOR>
19

> <PUBCHEM_CACTVS_HBOND_DONOR>
13

> <PUBCHEM_CACTVS_ROTATABLE_BOND>
6

> <PUBCHEM_CACTVS_SUBSKEYS>
AAADcfB7vABAAAAAAAAAAAAAAAAAAAAAAAA0SIAAAAAAAAAAAAAAHgAQCAAACDzxgAcACABABoAAAAAAADAAAAAAAAAAAIAAAAATEAIAwAAjQAAHEAAHAAHwcA0AAAAAAAAAAAAAgAAUCACgAAAAAAAAAA==

> <PUBCHEM_IUPAC_OPENEYE_NAME>
(2R,3S,4S,5R,6R)-2-(aminomethyl)-6-[(1R,2R,3S,4R,6S)-4,6-diamino-3-[(2S,3R,4S,5S,6R)-4-amino-3,5-dihydroxy-6-(hydroxymethyl)tetrahydropyran-2-yl]oxy-2-hydroxy-cyclohexoxy]tetrahydropyran-3,4,5-triol;sulfuric acid

> <PUBCHEM_IUPAC_CAS_NAME>
(2R,3S,4S,5R,6R)-2-(aminomethyl)-6-[(1R,2R,3S,4R,6S)-4,6-diamino-3-[[(2S,3R,4S,5S,6R)-4-amino-3,5-dihydroxy-6-(hydroxymethyl)-2-oxanyl]oxy]-2-hydroxycyclohexyl]oxyoxane-3,4,5-triol;sulfuric acid

> <PUBCHEM_IUPAC_NAME_MARKUP>
(2<I>R</I>,3<I>S</I>,4<I>S</I>,5<I>R</I>,6<I>R</I>)-2-(aminomethyl)-6-[(1<I>R</I>,2<I>R</I>,3<I>S</I>,4<I>R</I>,6<I>S</I>)-4,6-diamino-3-[(2<I>S</I>,3<I>R</I>,4<I>S</I>,5<I>S</I>,6<I>R</I>)-4-amino-3,5-dihydroxy-6-(hydroxymethyl)oxan-2-yl]oxy-2-hydroxycyclohexyl]oxyoxane-3,4,5-triol;sulfuric acid

> <PUBCHEM_IUPAC_NAME>
(2R,3S,4S,5R,6R)-2-(aminomethyl)-6-[(1R,2R,3S,4R,6S)-4,6-diamino-3-[(2S,3R,4S,5S,6R)-4-amino-3,5-dihydroxy-6-(hydroxymethyl)oxan-2-yl]oxy-2-hydroxycyclohexyl]oxyoxane-3,4,5-triol;sulfuric acid

> <PUBCHEM_IUPAC_SYSTEMATIC_NAME>
(2R,3S,4S,5R,6R)-2-(aminomethyl)-6-[(1R,2R,3S,4R,6S)-4,6-bis(azanyl)-3-[(2S,3R,4S,5S,6R)-4-azanyl-6-(hydroxymethyl)-3,5-bis(oxidanyl)oxan-2-yl]oxy-2-oxidanyl-cyclohexyl]oxy-oxane-3,4,5-triol;sulfuric acid

> <PUBCHEM_IUPAC_TRADITIONAL_NAME>
(2R,3S,4S,5R,6R)-2-(aminomethyl)-6-[(1R,2R,3S,4R,6S)-4,6-diamino-3-[(2S,3R,4S,5S,6R)-4-amino-3,5-dihydroxy-6-methylol-tetrahydropyran-2-yl]oxy-2-hydroxy-cyclohexoxy]tetrahydropyran-3,4,5-triol;sulfuric acid

> <PUBCHEM_IUPAC_INCHI>
InChI=1S/C18H36N4O11.H2O4S/c19-2-6-10(25)12(27)13(28)18(30-6)33-16-5(21)1-4(20)15(14(16)29)32-17-11(26)8(22)9(24)7(3-23)31-17;1-5(2,3)4/h4-18,23-29H,1-3,19-22H2;(H2,1,2,3,4)/t4-,5+,6-,7-,8+,9-,10-,11-,12+,13-,14-,15+,16-,17-,18-;/m1./s1

> <PUBCHEM_IUPAC_INCHIKEY>
OOYGSFOGFJDDHP-KMCOLRRFSA-N

> <PUBCHEM_EXACT_MASS>
582.205438

> <PUBCHEM_MOLECULAR_FORMULA>
C18H38N4O15S

> <PUBCHEM_MOLECULAR_WEIGHT>
582.6

> <PUBCHEM_OPENEYE_CAN_SMILES>
C1C(C(C(C(C1N)OC2C(C(C(C(O2)CN)O)O)O)O)OC3C(C(C(C(O3)CO)O)N)O)N.OS(=O)(=O)O

> <PUBCHEM_OPENEYE_ISO_SMILES>
C1[C@H]([C@@H]([C@H]([C@@H]([C@H]1N)O[C@@H]2[C@@H]([C@H]([C@@H]([C@H](O2)CN)O)O)O)O)O[C@@H]3[C@@H]([C@H]([C@@H]([C@H](O3)CO)O)N)O)N.OS(=O)(=O)O

> <PUBCHEM_CACTVS_TPSA>
366

> <PUBCHEM_MONOISOTOPIC_WEIGHT>
582.205438

> <PUBCHEM_TOTAL_CHARGE>
0

> <PUBCHEM_HEAVY_ATOM_COUNT>
38

> <PUBCHEM_ATOM_DEF_STEREO_COUNT>
15

> <PUBCHEM_ATOM_UDEF_STEREO_COUNT>
0

> <PUBCHEM_BOND_DEF_STEREO_COUNT>
0

> <PUBCHEM_BOND_UDEF_STEREO_COUNT>
0

> <PUBCHEM_ISOTOPIC_ATOM_COUNT>
0

> <PUBCHEM_COMPONENT_COUNT>
2

> <PUBCHEM_CACTVS_TAUTO_COUNT>
-1

> <PUBCHEM_COORDINATE_TYPE>
1
5
255

> <PUBCHEM_BONDANNOTATIONS>
33  10  5
35  11  6
24  17  6
25  18  6
30  19  5
21  2  5
27  2  6
22  3  5
28  3  6
34  37  5
36  38  5
23  4  6
29  7  6
31  8  6
32  9  6

$$$$
439503
  -OEChem-04052116402D

 38 39  0     1  0  0  0  0  0999 V2000
    5.1350    0.1550    0.0000 O   0  0  0  0  0  0  0  0  0  0  0  0
    6.8671    0.1550    0.0000 O   0  0  0  0  0  0  0  0  0  0  0  0
    5.1350   -2.8450    0.0000 O   0  0  0  0  0  0  0  0  0  0  0  0
    3.4030   -1.8450    0.0000 O   0  0  0  0  0  0  0  0  0  0  0  0
    6.8671   -1.8450    0.0000 O   0  0  0  0  0  0  0  0  0  0  0  0
    2.5369   -0.3450    0.0000 O   0  0  0  0  0  0  0  0  0  0  0  0
    9.4651    1.6550    0.0000 O   0  0  0  0  0  0  0  0  0  0  0  0
    5.1350   -1.8450    0.0000 C   0  0  1  0  0  0  0  0  0  0  0  0
    4.2690   -1.3450    0.0000 C   0  0  1  0  0  0  0  0  0  0  0  0
    6.0010   -1.3450    0.0000 C   0  0  2  0  0  0  0  0  0  0  0  0
    4.2690   -0.3450    0.0000 C   0  0  1  0  0  0  0  0  0  0  0  0
    6.0010   -0.3450    0.0000 C   0  0  1  0  0  0  0  0  0  0  0  0
    3.4030    0.1550    0.0000 C   0  0  0  0  0  0  0  0  0  0  0  0
    6.8671    1.1550    0.0000 C   0  0  0  0  0  0  0  0  0  0  0  0
    7.7331    1.6550    0.0000 C   0  0  0  0  0  0  0  0  0  0  0  0
    6.0010    1.6550    0.0000 C   0  0  0  0  0  0  0  0  0  0  0  0
    7.7331    2.6550    0.0000 C   0  0  0  0  0  0  0  0  0  0  0  0
    8.5991    1.1550    0.0000 C   0  0  0  0  0  0  0  0  0  0  0  0
    6.0010    2.6550    0.0000 C   0  0  0  0  0  0  0  0  0  0  0  0
    6.8671    3.1550    0.0000 C   0  0  0  0  0  0  0  0  0  0  0  0
    4.5981   -2.1550    0.0000 H   0  0  0  0  0  0  0  0  0  0  0  0
    4.2690   -1.9650    0.0000 H   0  0  0  0  0  0  0  0  0  0  0  0
    6.0010   -1.9650    0.0000 H   0  0  0  0  0  0  0  0  0  0  0  0
    4.2690    0.2750    0.0000 H   0  0  0  0  0  0  0  0  0  0  0  0
    6.0010    0.2750    0.0000 H   0  0  0  0  0  0  0  0  0  0  0  0
    3.8015    0.6299    0.0000 H   0  0  0  0  0  0  0  0  0  0  0  0
    3.0044    0.6299    0.0000 H   0  0  0  0  0  0  0  0  0  0  0  0
    4.5981   -3.1550    0.0000 H   0  0  0  0  0  0  0  0  0  0  0  0
    3.4030   -2.4650    0.0000 H   0  0  0  0  0  0  0  0  0  0  0  0
    6.8671   -2.4650    0.0000 H   0  0  0  0  0  0  0  0  0  0  0  0
    2.0000   -0.0350    0.0000 H   0  0  0  0  0  0  0  0  0  0  0  0
    5.4641    1.3450    0.0000 H   0  0  0  0  0  0  0  0  0  0  0  0
    8.2700    2.9650    0.0000 H   0  0  0  0  0  0  0  0  0  0  0  0
    8.2006    0.6801    0.0000 H   0  0  0  0  0  0  0  0  0  0  0  0
    8.9976    0.6801    0.0000 H   0  0  0  0  0  0  0  0  0  0  0  0
    5.4641    2.9650    0.0000 H   0  0  0  0  0  0  0  0  0  0  0  0
    6.8671    3.7750    0.0000 H   0  0  0  0  0  0  0  0  0  0  0  0
   10.0021    1.3450    0.0000 H   0  0  0  0  0  0  0  0  0  0  0  0
  1 11  1  0  0  0  0
  1 12  1  0  0  0  0
 12  2  1  1  0  0  0
  2 14  1  0  0  0  0
  8  3  1  1  0  0  0
  3 28  1  0  0  0  0
  9  4  1  6  0  0  0
  4 29  1  0  0  0  0
 10  5  1  6  0  0  0
  5 30  1  0  0  0  0
  6 13  1  0  0  0  0
  6 31  1  0  0  0  0
  7 18  1  0  0  0  0
  7 38  1  0  0  0  0
  8  9  1  0  0  0  0
  8 10  1  0  0  0  0
  8 21  1  0  0  0  0
  9 11  1  0  0  0  0
  9 22  1  0  0  0  0
 10 12  1  0  0  0  0
 10 23  1  0  0  0  0
 11 13  1  1  0  0  0
 11 24  1  0  0  0  0
 12 25  1  0  0  0  0
 13 26  1  0  0  0  0
 13 27  1  0  0  0  0
 14 15  1  0  0  0  0
 14 16  2  0  0  0  0
 15 17  2  0  0  0  0
 15 18  1  0  0  0  0
 16 19  1  0  0  0  0
 16 32  1  0  0  0  0
 17 20  1  0  0  0  0
 17 33  1  0  0  0  0
 18 34  1  0  0  0  0
 18 35  1  0  0  0  0
 19 20  2  0  0  0  0
 19 36  1  0  0  0  0
 20 37  1  0  0  0  0
M  END
> <PUBCHEM_COMPOUND_CID>
439503

> <PUBCHEM_COMPOUND_CANONICALIZED>
1

> <PUBCHEM_CACTVS_COMPLEXITY>
300

> <PUBCHEM_CACTVS_HBOND_ACCEPTOR>
7

> <PUBCHEM_CACTVS_HBOND_DONOR>
5

> <PUBCHEM_CACTVS_ROTATABLE_BOND>
4

> <PUBCHEM_CACTVS_SUBSKEYS>
AAADceBwOAAAAAAAAAAAAAAAAAAAAAAAAAA0QAAAAAAAAAABAAAAGgAACAAADBSwmAMwDoAABgCAAiBCAAACCAAgIAAIiAAGCIgdNyKEMRqieCClwBEPuAfA4CwOAAAAAAAIAAAAAAAAABAAAAAAAAAAAA==

> <PUBCHEM_IUPAC_OPENEYE_NAME>
(2R,3S,4S,5R,6S)-2-(hydroxymethyl)-6-[2-(hydroxymethyl)phenoxy]tetrahydropyran-3,4,5-triol

> <PUBCHEM_IUPAC_CAS_NAME>
(2R,3S,4S,5R,6S)-2-(hydroxymethyl)-6-[2-(hydroxymethyl)phenoxy]oxane-3,4,5-triol

> <PUBCHEM_IUPAC_NAME_MARKUP>
(2<I>R</I>,3<I>S</I>,4<I>S</I>,5<I>R</I>,6<I>S</I>)-2-(hydroxymethyl)-6-[2-(hydroxymethyl)phenoxy]oxane-3,4,5-triol

> <PUBCHEM_IUPAC_NAME>
(2R,3S,4S,5R,6S)-2-(hydroxymethyl)-6-[2-(hydroxymethyl)phenoxy]oxane-3,4,5-triol

> <PUBCHEM_IUPAC_SYSTEMATIC_NAME>
(2R,3S,4S,5R,6S)-2-(hydroxymethyl)-6-[2-(hydroxymethyl)phenoxy]oxane-3,4,5-triol

> <PUBCHEM_IUPAC_TRADITIONAL_NAME>
(2R,3S,4S,5R,6S)-2-methylol-6-(2-methylolphenoxy)tetrahydropyran-3,4,5-triol

> <PUBCHEM_IUPAC_INCHI>
InChI=1S/C13H18O7/c14-5-7-3-1-2-4-8(7)19-13-12(18)11(17)10(16)9(6-15)20-13/h1-4,9-18H,5-6H2/t9-,10-,11+,12-,13-/m1/s1

> <PUBCHEM_IUPAC_INCHIKEY>
NGFMICBWJRZIBI-UJPOAAIJSA-N

> <PUBCHEM_XLOGP3>
-1.2

> <PUBCHEM_EXACT_MASS>
286.105253

> <PUBCHEM_MOLECULAR_FORMULA>
C13H18O7

> <PUBCHEM_MOLECULAR_WEIGHT>
286.28

> <PUBCHEM_OPENEYE_CAN_SMILES>
C1=CC=C(C(=C1)CO)OC2C(C(C(C(O2)CO)O)O)O

> <PUBCHEM_OPENEYE_ISO_SMILES>
C1=CC=C(C(=C1)CO)O[C@H]2[C@@H]([C@H]([C@@H]([C@H](O2)CO)O)O)O

> <PUBCHEM_CACTVS_TPSA>
120

> <PUBCHEM_MONOISOTOPIC_WEIGHT>
286.105253

> <PUBCHEM_TOTAL_CHARGE>
0

> <PUBCHEM_HEAVY_ATOM_COUNT>
20

> <PUBCHEM_ATOM_DEF_STEREO_COUNT>
5

> <PUBCHEM_ATOM_UDEF_STEREO_COUNT>
0

> <PUBCHEM_BOND_DEF_STEREO_COUNT>
0

> <PUBCHEM_BOND_UDEF_STEREO_COUNT>
0

> <PUBCHEM_ISOTOPIC_ATOM_COUNT>
0

> <PUBCHEM_COMPONENT_COUNT>
1

> <PUBCHEM_CACTVS_TAUTO_COUNT>
-1

> <PUBCHEM_COORDINATE_TYPE>
1
5
255

> <PUBCHEM_BONDANNOTATIONS>
11  13  5
14  15  8
14  16  8
15  17  8
16  19  8
17  20  8
19  20  8
12  2  5
8  3  5
9  4  6
10  5  6

$$$$
354654
  -OEChem-04052116402D

 56 58  0     1  0  0  0  0  0999 V2000
    5.8207   -1.0384    0.0000 O   0  0  0  0  0  0  0  0  0  0  0  0
    4.6208   -0.7022    0.0000 O   0  0  0  0  0  0  0  0  0  0  0  0
    2.9303   -0.3252    0.0000 O   0  0  0  0  0  0  0  0  0  0  0  0
    4.7550    3.8784    0.0000 O   0  0  0  0  0  0  0  0  0  0  0  0
    5.1881   -2.2978    0.0000 C   0  0  2  0  0  0  0  0  0  0  0  0
    5.1931   -3.2978    0.0000 C   0  0  2  0  0  0  0  0  0  0  0  0
    6.1328   -1.9884    0.0000 C   0  0  2  0  0  0  0  0  0  0  0  0
    6.1408   -3.5978    0.0000 C   0  0  0  0  0  0  0  0  0  0  0  0
    6.7204   -2.7902    0.0000 C   0  0  0  0  0  0  0  0  0  0  0  0
    4.4032   -1.6783    0.0000 C   0  0  2  0  0  0  0  0  0  0  0  0
    6.9399   -1.3980    0.0000 C   0  0  0  0  0  0  0  0  0  0  0  0
    4.4144   -3.9252    0.0000 C   0  0  0  0  0  0  0  0  0  0  0  0
    5.1981   -4.2978    0.0000 C   0  0  0  0  0  0  0  0  0  0  0  0
    3.4294   -1.9056    0.0000 C   0  0  0  0  0  0  0  0  0  0  0  0
    3.4384   -3.7076    0.0000 C   0  0  0  0  0  0  0  0  0  0  0  0
    3.0000   -2.8088    0.0000 C   0  0  0  0  0  0  0  0  0  0  0  0
    7.8548   -1.8017    0.0000 C   0  0  0  0  0  0  0  0  0  0  0  0
    6.8321   -0.4038    0.0000 C   0  0  0  0  0  0  0  0  0  0  0  0
    2.0000   -2.8137    0.0000 C   0  0  0  0  0  0  0  0  0  0  0  0
    3.8844   -0.0257    0.0000 C   0  0  0  0  0  0  0  0  0  0  0  0
    4.1021    0.9503    0.0000 C   0  0  0  0  0  0  0  0  0  0  0  0
    3.3656    1.6268    0.0000 C   0  0  0  0  0  0  0  0  0  0  0  0
    5.0562    1.2498    0.0000 C   0  0  0  0  0  0  0  0  0  0  0  0
    3.5833    2.6028    0.0000 C   0  0  0  0  0  0  0  0  0  0  0  0
    5.2738    2.2258    0.0000 C   0  0  0  0  0  0  0  0  0  0  0  0
    4.5374    2.9024    0.0000 C   0  0  0  0  0  0  0  0  0  0  0  0
    5.3368   -1.4610    0.0000 H   0  0  0  0  0  0  0  0  0  0  0  0
    5.8926   -4.1660    0.0000 H   0  0  0  0  0  0  0  0  0  0  0  0
    6.6797   -3.9044    0.0000 H   0  0  0  0  0  0  0  0  0  0  0  0
    7.1833   -3.2026    0.0000 H   0  0  0  0  0  0  0  0  0  0  0  0
    7.1792   -2.3732    0.0000 H   0  0  0  0  0  0  0  0  0  0  0  0
    3.9626   -1.2420    0.0000 H   0  0  0  0  0  0  0  0  0  0  0  0
    7.4403   -1.0319    0.0000 H   0  0  0  0  0  0  0  0  0  0  0  0
    4.1482   -4.4851    0.0000 H   0  0  0  0  0  0  0  0  0  0  0  0
    4.9010   -4.3094    0.0000 H   0  0  0  0  0  0  0  0  0  0  0  0
    4.5781   -4.3009    0.0000 H   0  0  0  0  0  0  0  0  0  0  0  0
    5.2012   -4.9178    0.0000 H   0  0  0  0  0  0  0  0  0  0  0  0
    5.8181   -4.2947    0.0000 H   0  0  0  0  0  0  0  0  0  0  0  0
    3.4263   -1.2856    0.0000 H   0  0  0  0  0  0  0  0  0  0  0  0
    2.8242   -1.7707    0.0000 H   0  0  0  0  0  0  0  0  0  0  0  0
    3.0542   -4.1942    0.0000 H   0  0  0  0  0  0  0  0  0  0  0  0
    6.2340   -0.5762    0.0000 H   0  0  0  0  0  0  0  0  0  0  0  0
    7.6044   -2.3690    0.0000 H   0  0  0  0  0  0  0  0  0  0  0  0
    8.4220   -2.0521    0.0000 H   0  0  0  0  0  0  0  0  0  0  0  0
    8.1051   -1.2345    0.0000 H   0  0  0  0  0  0  0  0  0  0  0  0
    7.4485   -0.3370    0.0000 H   0  0  0  0  0  0  0  0  0  0  0  0
    6.7653    0.2126    0.0000 H   0  0  0  0  0  0  0  0  0  0  0  0
    6.2157   -0.4706    0.0000 H   0  0  0  0  0  0  0  0  0  0  0  0
    1.9969   -2.1938    0.0000 H   0  0  0  0  0  0  0  0  0  0  0  0
    1.3800   -2.8168    0.0000 H   0  0  0  0  0  0  0  0  0  0  0  0
    2.0031   -3.4337    0.0000 H   0  0  0  0  0  0  0  0  0  0  0  0
    2.7741    1.4411    0.0000 H   0  0  0  0  0  0  0  0  0  0  0  0
    5.5127    0.8304    0.0000 H   0  0  0  0  0  0  0  0  0  0  0  0
    3.1267    3.0223    0.0000 H   0  0  0  0  0  0  0  0  0  0  0  0
    5.8653    2.4116    0.0000 H   0  0  0  0  0  0  0  0  0  0  0  0
    4.2984    4.2978    0.0000 H   0  0  0  0  0  0  0  0  0  0  0  0
  7  1  1  1  0  0  0
  1 42  1  0  0  0  0
 10  2  1  6  0  0  0
  2 20  1  0  0  0  0
  3 20  2  0  0  0  0
  4 26  1  0  0  0  0
  4 56  1  0  0  0  0
  5  6  1  0  0  0  0
  5  7  1  0  0  0  0
  5 10  1  0  0  0  0
  5 27  1  6  0  0  0
  6  8  1  0  0  0  0
  6 12  1  0  0  0  0
  6 13  1  1  0  0  0
  7  9  1  0  0  0  0
  7 11  1  0  0  0  0
  8  9  1  0  0  0  0
  8 28  1  0  0  0  0
  8 29  1  0  0  0  0
  9 30  1  0  0  0  0
  9 31  1  0  0  0  0
 10 14  1  0  0  0  0
 10 32  1  0  0  0  0
 11 17  1  0  0  0  0
 11 18  1  0  0  0  0
 11 33  1  0  0  0  0
 12 15  1  0  0  0  0
 12 34  1  0  0  0  0
 12 35  1  0  0  0  0
 13 36  1  0  0  0  0
 13 37  1  0  0  0  0
 13 38  1  0  0  0  0
 14 16  1  0  0  0  0
 14 39  1  0  0  0  0
 14 40  1  0  0  0  0
 15 16  2  0  0  0  0
 15 41  1  0  0  0  0
 16 19  1  0  0  0  0
 17 43  1  0  0  0  0
 17 44  1  0  0  0  0
 17 45  1  0  0  0  0
 18 46  1  0  0  0  0
 18 47  1  0  0  0  0
 18 48  1  0  0  0  0
 19 49  1  0  0  0  0
 19 50  1  0  0  0  0
 19 51  1  0  0  0  0
 20 21  1  0  0  0  0
 21 22  2  0  0  0  0
 21 23  1  0  0  0  0
 22 24  1  0  0  0  0
 22 52  1  0  0  0  0
 23 25  2  0  0  0  0
 23 53  1  0  0  0  0
 24 26  2  0  0  0  0
 24 54  1  0  0  0  0
 25 26  1  0  0  0  0
 25 55  1  0  0  0  0
M  END
> <PUBCHEM_COMPOUND_CID>
354654

> <PUBCHEM_COMPOUND_CANONICALIZED>
1

> <PUBCHEM_CACTVS_COMPLEXITY>
561

> <PUBCHEM_CACTVS_HBOND_ACCEPTOR>
4

> <PUBCHEM_CACTVS_HBOND_DONOR>
2

> <PUBCHEM_CACTVS_ROTATABLE_BOND>
4

> <PUBCHEM_CACTVS_SUBSKEYS>
AAADceB4OAAAAAAAAAAAAAAAAAAAAYAAAAAwAAAABAAAAACBAAAAGgAACAAAD1SgmAIyDoAABgCIAiDSCAACAAAkIAAIiAEGCMgIJjKCNRqCcQAlwBEIuYeI7OzPoAAAAAAAAABAAAAAAAAAAYAADAAAAA==

> <PUBCHEM_IUPAC_OPENEYE_NAME>
[(3R,3aS,4S,8aR)-3-hydroxy-3-isopropyl-6,8a-dimethyl-1,2,3a,4,5,8-hexahydroazulen-4-yl] 4-hydroxybenzoate

> <PUBCHEM_IUPAC_CAS_NAME>
4-hydroxybenzoic acid [(3R,3aS,4S,8aR)-3-hydroxy-6,8a-dimethyl-3-propan-2-yl-1,2,3a,4,5,8-hexahydroazulen-4-yl] ester

> <PUBCHEM_IUPAC_NAME_MARKUP>
[(3<I>R</I>,3<I>a</I><I>S</I>,4<I>S</I>,8<I>a</I><I>R</I>)-3-hydroxy-6,8<I>a</I>-dimethyl-3-propan-2-yl-1,2,3<I>a</I>,4,5,8-hexahydroazulen-4-yl] 4-hydroxybenzoate

> <PUBCHEM_IUPAC_NAME>
[(3R,3aS,4S,8aR)-3-hydroxy-6,8a-dimethyl-3-propan-2-yl-1,2,3a,4,5,8-hexahydroazulen-4-yl] 4-hydroxybenzoate

> <PUBCHEM_IUPAC_SYSTEMATIC_NAME>
[(3R,3aS,4S,8aR)-6,8a-dimethyl-3-oxidanyl-3-propan-2-yl-1,2,3a,4,5,8-hexahydroazulen-4-yl] 4-oxidanylbenzoate

> <PUBCHEM_IUPAC_TRADITIONAL_NAME>
4-hydroxybenzoic acid [(3R,3aS,4S,8aR)-3-hydroxy-3-isopropyl-6,8a-dimethyl-1,2,3a,4,5,8-hexahydroazulen-4-yl] ester

> <PUBCHEM_IUPAC_INCHI>
InChI=1S/C22H30O4/c1-14(2)22(25)12-11-21(4)10-9-15(3)13-18(19(21)22)26-20(24)16-5-7-17(23)8-6-16/h5-9,14,18-19,23,25H,10-13H2,1-4H3/t18-,19+,21-,22+/m0/s1

> <PUBCHEM_IUPAC_INCHIKEY>
CYSHNJQMYORNJI-YUVXSKOASA-N

> <PUBCHEM_XLOGP3_AA>
4.5

> <PUBCHEM_EXACT_MASS>
358.214409

> <PUBCHEM_MOLECULAR_FORMULA>
C22H30O4

> <PUBCHEM_MOLECULAR_WEIGHT>
358.5

> <PUBCHEM_OPENEYE_CAN_SMILES>
CC1=CCC2(CCC(C2C(C1)OC(=O)C3=CC=C(C=C3)O)(C(C)C)O)C

> <PUBCHEM_OPENEYE_ISO_SMILES>
CC1=CC[C@]2(CC[C@]([C@@H]2[C@H](C1)OC(=O)C3=CC=C(C=C3)O)(C(C)C)O)C

> <PUBCHEM_CACTVS_TPSA>
66.8

> <PUBCHEM_MONOISOTOPIC_WEIGHT>
358.214409

> <PUBCHEM_TOTAL_CHARGE>
0

> <PUBCHEM_HEAVY_ATOM_COUNT>
26

> <PUBCHEM_ATOM_DEF_STEREO_COUNT>
4

> <PUBCHEM_ATOM_UDEF_STEREO_COUNT>
0

> <PUBCHEM_BOND_DEF_STEREO_COUNT>
0

> <PUBCHEM_BOND_UDEF_STEREO_COUNT>
0

> <PUBCHEM_ISOTOPIC_ATOM_COUNT>
0

> <PUBCHEM_COMPONENT_COUNT>
1

> <PUBCHEM_CACTVS_TAUTO_COUNT>
-1

> <PUBCHEM_COORDINATE_TYPE>
1
5
255

> <PUBCHEM_BONDANNOTATIONS>
7  1  5
10  2  6
21  22  8
21  23  8
22  24  8
23  25  8
24  26  8
25  26  8
5  27  6
6  13  5

$$$$
354197
  -OEChem-04052116402D

 23 22  0     1  0  0  0  0  0999 V2000
    2.5369   -0.4050    0.0000 O   0  0  0  0  0  0  0  0  0  0  0  0
    6.8671    0.0950    0.0000 O   0  0  0  0  0  0  0  0  0  0  0  0
    6.0010   -1.4050    0.0000 O   0  0  0  0  0  0  0  0  0  0  0  0
    5.1350    1.0950    0.0000 N   0  0  0  0  0  0  0  0  0  0  0  0
    4.2690   -0.4050    0.0000 C   0  0  3  0  0  0  0  0  0  0  0  0
    3.4030    0.0950    0.0000 C   0  0  3  0  0  0  0  0  0  0  0  0
    5.1350    0.0950    0.0000 C   0  0  3  0  0  0  0  0  0  0  0  0
    4.2690   -1.4050    0.0000 C   0  0  0  0  0  0  0  0  0  0  0  0
    3.4030    1.0950    0.0000 C   0  0  0  0  0  0  0  0  0  0  0  0
    6.0010   -0.4050    0.0000 C   0  0  0  0  0  0  0  0  0  0  0  0
    4.8059   -0.7150    0.0000 H   0  0  0  0  0  0  0  0  0  0  0  0
    3.4030   -0.5250    0.0000 H   0  0  0  0  0  0  0  0  0  0  0  0
    5.6720    0.4050    0.0000 H   0  0  0  0  0  0  0  0  0  0  0  0
    3.6490   -1.4050    0.0000 H   0  0  0  0  0  0  0  0  0  0  0  0
    4.2690   -2.0250    0.0000 H   0  0  0  0  0  0  0  0  0  0  0  0
    4.8890   -1.4050    0.0000 H   0  0  0  0  0  0  0  0  0  0  0  0
    4.0230    1.0950    0.0000 H   0  0  0  0  0  0  0  0  0  0  0  0
    3.4030    1.7150    0.0000 H   0  0  0  0  0  0  0  0  0  0  0  0
    2.7830    1.0950    0.0000 H   0  0  0  0  0  0  0  0  0  0  0  0
    5.6720    1.4050    0.0000 H   0  0  0  0  0  0  0  0  0  0  0  0
    4.5981    1.4050    0.0000 H   0  0  0  0  0  0  0  0  0  0  0  0
    2.0000   -0.0950    0.0000 H   0  0  0  0  0  0  0  0  0  0  0  0
    7.4040   -0.2150    0.0000 H   0  0  0  0  0  0  0  0  0  0  0  0
  1  6  1  0  0  0  0
  1 22  1  0  0  0  0
  2 10  1  0  0  0  0
  2 23  1  0  0  0  0
  3 10  2  0  0  0  0
  4  7  1  0  0  0  0
  4 20  1  0  0  0  0
  4 21  1  0  0  0  0
  5  6  1  0  0  0  0
  5  7  1  0  0  0  0
  5  8  1  0  0  0  0
  5 11  1  0  0  0  0
  6  9  1  0  0  0  0
  6 12  1  0  0  0  0
  7 10  1  0  0  0  0
  7 13  1  0  0  0  0
  8 14  1  0  0  0  0
  8 15  1  0  0  0  0
  8 16  1  0  0  0  0
  9 17  1  0  0  0  0
  9 18  1  0  0  0  0
  9 19  1  0  0  0  0
M  END
> <PUBCHEM_COMPOUND_CID>
354197

> <PUBCHEM_COMPOUND_CANONICALIZED>
1

> <PUBCHEM_CACTVS_COMPLEXITY>
126

> <PUBCHEM_CACTVS_HBOND_ACCEPTOR>
4

> <PUBCHEM_CACTVS_HBOND_DONOR>
3

> <PUBCHEM_CACTVS_ROTATABLE_BOND>
3

> <PUBCHEM_CACTVS_SUBSKEYS>
AAADccBiMAAAAAAAAAAAAAAAAAAAAAAAAAAAAAAAAAAAAAAAAAAAHgAQCAAADTzhgAYCCABAAgAIAACQCAAAAAAAAAAAAIGAAAACEBIAgAAAQAAGEAAAAADKAAAKAAAAAAAAAAAAAAAAAAAAAAAAAAAAAA==

> <PUBCHEM_IUPAC_OPENEYE_NAME>
2-amino-4-hydroxy-3-methyl-pentanoic acid

> <PUBCHEM_IUPAC_CAS_NAME>
2-amino-4-hydroxy-3-methylpentanoic acid

> <PUBCHEM_IUPAC_NAME_MARKUP>
2-amino-4-hydroxy-3-methylpentanoic acid

> <PUBCHEM_IUPAC_NAME>
2-amino-4-hydroxy-3-methylpentanoic acid

> <PUBCHEM_IUPAC_SYSTEMATIC_NAME>
2-azanyl-3-methyl-4-oxidanyl-pentanoic acid

> <PUBCHEM_IUPAC_TRADITIONAL_NAME>
2-amino-4-hydroxy-3-methyl-valeric acid

> <PUBCHEM_IUPAC_INCHI>
InChI=1S/C6H13NO3/c1-3(4(2)8)5(7)6(9)10/h3-5,8H,7H2,1-2H3,(H,9,10)

> <PUBCHEM_IUPAC_INCHIKEY>
OSCCDBFHNMXNME-UHFFFAOYSA-N

> <PUBCHEM_XLOGP3_AA>
-2.8

> <PUBCHEM_EXACT_MASS>
147.089543

> <PUBCHEM_MOLECULAR_FORMULA>
C6H13NO3

> <PUBCHEM_MOLECULAR_WEIGHT>
147.17

> <PUBCHEM_OPENEYE_CAN_SMILES>
CC(C(C)O)C(C(=O)O)N

> <PUBCHEM_OPENEYE_ISO_SMILES>
CC(C(C)O)C(C(=O)O)N

> <PUBCHEM_CACTVS_TPSA>
83.6

> <PUBCHEM_MONOISOTOPIC_WEIGHT>
147.089543

> <PUBCHEM_TOTAL_CHARGE>
0

> <PUBCHEM_HEAVY_ATOM_COUNT>
10

> <PUBCHEM_ATOM_DEF_STEREO_COUNT>
0

> <PUBCHEM_ATOM_UDEF_STEREO_COUNT>
3

> <PUBCHEM_BOND_DEF_STEREO_COUNT>
0

> <PUBCHEM_BOND_UDEF_STEREO_COUNT>
0

> <PUBCHEM_ISOTOPIC_ATOM_COUNT>
0

> <PUBCHEM_COMPONENT_COUNT>
1

> <PUBCHEM_CACTVS_TAUTO_COUNT>
-1

> <PUBCHEM_COORDINATE_TYPE>
1
5
255

> <PUBCHEM_BONDANNOTATIONS>
6  1  3
7  4  3
5  8  3

$$$$
354049
  -OEChem-04052116402D

 38 39  0     0  0  0  0  0  0999 V2000
    4.5981   -0.2500    0.0000 O   0  0  0  0  0  0  0  0  0  0  0  0
    5.4641    1.2500    0.0000 O   0  0  0  0  0  0  0  0  0  0  0  0
    2.0000    1.2500    0.0000 O   0  0  0  0  0  0  0  0  0  0  0  0
    3.7320    2.2500    0.0000 C   0  0  0  0  0  0  0  0  0  0  0  0
    3.7320    1.2500    0.0000 C   0  0  0  0  0  0  0  0  0  0  0  0
    4.7320    2.2500    0.0000 C   0  0  0  0  0  0  0  0  0  0  0  0
    2.7320    2.2500    0.0000 C   0  0  0  0  0  0  0  0  0  0  0  0
    3.7320    3.2500    0.0000 C   0  0  0  0  0  0  0  0  0  0  0  0
    4.5981    0.7500    0.0000 C   0  0  0  0  0  0  0  0  0  0  0  0
    2.8660    0.7500    0.0000 C   0  0  0  0  0  0  0  0  0  0  0  0
    3.7320   -0.7500    0.0000 C   0  0  0  0  0  0  0  0  0  0  0  0
    2.8660   -0.2500    0.0000 C   0  0  0  0  0  0  0  0  0  0  0  0
    3.7320   -1.7500    0.0000 C   0  0  0  0  0  0  0  0  0  0  0  0
    2.8660    3.7500    0.0000 C   0  0  0  0  0  0  0  0  0  0  0  0
    2.8660   -2.2500    0.0000 C   0  0  0  0  0  0  0  0  0  0  0  0
    4.5981   -2.2500    0.0000 C   0  0  0  0  0  0  0  0  0  0  0  0
    6.3301    0.7500    0.0000 C   0  0  0  0  0  0  0  0  0  0  0  0
    2.8660   -3.2500    0.0000 C   0  0  0  0  0  0  0  0  0  0  0  0
    4.5981   -3.2500    0.0000 C   0  0  0  0  0  0  0  0  0  0  0  0
    3.7320   -3.7500    0.0000 C   0  0  0  0  0  0  0  0  0  0  0  0
    4.7320    1.6300    0.0000 H   0  0  0  0  0  0  0  0  0  0  0  0
    5.3520    2.2500    0.0000 H   0  0  0  0  0  0  0  0  0  0  0  0
    4.7320    2.8700    0.0000 H   0  0  0  0  0  0  0  0  0  0  0  0
    2.7320    2.8700    0.0000 H   0  0  0  0  0  0  0  0  0  0  0  0
    2.1120    2.2500    0.0000 H   0  0  0  0  0  0  0  0  0  0  0  0
    2.7320    1.6300    0.0000 H   0  0  0  0  0  0  0  0  0  0  0  0
    4.2690    3.5600    0.0000 H   0  0  0  0  0  0  0  0  0  0  0  0
    2.3291   -0.5600    0.0000 H   0  0  0  0  0  0  0  0  0  0  0  0
    2.8660    4.3700    0.0000 H   0  0  0  0  0  0  0  0  0  0  0  0
    2.3291    3.4400    0.0000 H   0  0  0  0  0  0  0  0  0  0  0  0
    2.3291   -1.9400    0.0000 H   0  0  0  0  0  0  0  0  0  0  0  0
    5.1350   -1.9400    0.0000 H   0  0  0  0  0  0  0  0  0  0  0  0
    6.0201    0.2131    0.0000 H   0  0  0  0  0  0  0  0  0  0  0  0
    6.8671    0.4400    0.0000 H   0  0  0  0  0  0  0  0  0  0  0  0
    6.6401    1.2869    0.0000 H   0  0  0  0  0  0  0  0  0  0  0  0
    2.3291   -3.5600    0.0000 H   0  0  0  0  0  0  0  0  0  0  0  0
    5.1350   -3.5600    0.0000 H   0  0  0  0  0  0  0  0  0  0  0  0
    3.7320   -4.3700    0.0000 H   0  0  0  0  0  0  0  0  0  0  0  0
  1  9  1  0  0  0  0
  1 11  1  0  0  0  0
  2  9  1  0  0  0  0
  2 17  1  0  0  0  0
  3 10  2  0  0  0  0
  4  5  1  0  0  0  0
  4  6  1  0  0  0  0
  4  7  1  0  0  0  0
  4  8  1  0  0  0  0
  5  9  2  0  0  0  0
  5 10  1  0  0  0  0
  6 21  1  0  0  0  0
  6 22  1  0  0  0  0
  6 23  1  0  0  0  0
  7 24  1  0  0  0  0
  7 25  1  0  0  0  0
  7 26  1  0  0  0  0
  8 14  2  0  0  0  0
  8 27  1  0  0  0  0
 10 12  1  0  0  0  0
 11 12  2  0  0  0  0
 11 13  1  0  0  0  0
 12 28  1  0  0  0  0
 13 15  2  0  0  0  0
 13 16  1  0  0  0  0
 14 29  1  0  0  0  0
 14 30  1  0  0  0  0
 15 18  1  0  0  0  0
 15 31  1  0  0  0  0
 16 19  2  0  0  0  0
 16 32  1  0  0  0  0
 17 33  1  0  0  0  0
 17 34  1  0  0  0  0
 17 35  1  0  0  0  0
 18 20  2  0  0  0  0
 18 36  1  0  0  0  0
 19 20  1  0  0  0  0
 19 37  1  0  0  0  0
 20 38  1  0  0  0  0
M  END
> <PUBCHEM_COMPOUND_CID>
354049

> <PUBCHEM_COMPOUND_CANONICALIZED>
1

> <PUBCHEM_CACTVS_COMPLEXITY>
463

> <PUBCHEM_CACTVS_HBOND_ACCEPTOR>
3

> <PUBCHEM_CACTVS_HBOND_DONOR>
0

> <PUBCHEM_CACTVS_ROTATABLE_BOND>
4

> <PUBCHEM_CACTVS_SUBSKEYS>
AAADceB4MAAAAAAAAAAAAAAAAAAAAAAAAAAwQAAAAAAAAAABAAAAGgAAAAAADgSAmAIyCIAABACIAqBSAAACCAAgIAAIiAEACMgYJjKAMRigMAAkwAEMqQeAwCAPAAAAAAAAAAAAAAAAAAAAAAAAAAAAAA==

> <PUBCHEM_IUPAC_OPENEYE_NAME>
3-(1,1-dimethylallyl)-2-methoxy-6-phenyl-pyran-4-one

> <PUBCHEM_IUPAC_CAS_NAME>
2-methoxy-3-(2-methylbut-3-en-2-yl)-6-phenyl-4-pyranone

> <PUBCHEM_IUPAC_NAME_MARKUP>
2-methoxy-3-(2-methylbut-3-en-2-yl)-6-phenylpyran-4-one

> <PUBCHEM_IUPAC_NAME>
2-methoxy-3-(2-methylbut-3-en-2-yl)-6-phenylpyran-4-one

> <PUBCHEM_IUPAC_SYSTEMATIC_NAME>
2-methoxy-3-(2-methylbut-3-en-2-yl)-6-phenyl-pyran-4-one

> <PUBCHEM_IUPAC_TRADITIONAL_NAME>
3-(1,1-dimethylallyl)-2-methoxy-6-phenyl-pyran-4-one

> <PUBCHEM_IUPAC_INCHI>
InChI=1S/C17H18O3/c1-5-17(2,3)15-13(18)11-14(20-16(15)19-4)12-9-7-6-8-10-12/h5-11H,1H2,2-4H3

> <PUBCHEM_IUPAC_INCHIKEY>
CCCULUWXVWYUFL-UHFFFAOYSA-N

> <PUBCHEM_XLOGP3_AA>
3.9

> <PUBCHEM_EXACT_MASS>
270.125594

> <PUBCHEM_MOLECULAR_FORMULA>
C17H18O3

> <PUBCHEM_MOLECULAR_WEIGHT>
270.32

> <PUBCHEM_OPENEYE_CAN_SMILES>
CC(C)(C=C)C1=C(OC(=CC1=O)C2=CC=CC=C2)OC

> <PUBCHEM_OPENEYE_ISO_SMILES>
CC(C)(C=C)C1=C(OC(=CC1=O)C2=CC=CC=C2)OC

> <PUBCHEM_CACTVS_TPSA>
35.5

> <PUBCHEM_MONOISOTOPIC_WEIGHT>
270.125594

> <PUBCHEM_TOTAL_CHARGE>
0

> <PUBCHEM_HEAVY_ATOM_COUNT>
20

> <PUBCHEM_ATOM_DEF_STEREO_COUNT>
0

> <PUBCHEM_ATOM_UDEF_STEREO_COUNT>
0

> <PUBCHEM_BOND_DEF_STEREO_COUNT>
0

> <PUBCHEM_BOND_UDEF_STEREO_COUNT>
0

> <PUBCHEM_ISOTOPIC_ATOM_COUNT>
0

> <PUBCHEM_COMPONENT_COUNT>
1

> <PUBCHEM_CACTVS_TAUTO_COUNT>
-1

> <PUBCHEM_COORDINATE_TYPE>
1
5
255

> <PUBCHEM_BONDANNOTATIONS>
1  11  8
1  9  8
10  12  8
11  12  8
13  15  8
13  16  8
15  18  8
16  19  8
18  20  8
19  20  8
5  10  8
5  9  8

$$$$
354003
  -OEChem-04052116402D

 81 85  0     1  0  0  0  0  0999 V2000
    4.9186    1.1861    0.0000 O   0  0  0  0  0  0  0  0  0  0  0  0
    2.1236   -2.3663    0.0000 O   0  0  0  0  0  0  0  0  0  0  0  0
   11.1246    2.8304    0.0000 O   0  0  0  0  0  0  0  0  0  0  0  0
    6.6507   -0.8139    0.0000 C   0  0  1  0  0  0  0  0  0  0  0  0
    5.7847   -0.3139    0.0000 C   0  0  3  0  0  0  0  0  0  0  0  0
    7.5167   -0.3139    0.0000 C   0  0  3  0  0  0  0  0  0  0  0  0
    7.5167    0.6861    0.0000 C   0  0  2  0  0  0  0  0  0  0  0  0
    4.8746   -0.8208    0.0000 C   0  0  1  0  0  0  0  0  0  0  0  0
    8.4106    1.2207    0.0000 C   0  0  3  0  0  0  0  0  0  0  0  0
    4.8666   -1.8624    0.0000 C   0  0  1  0  0  0  0  0  0  0  0  0
    5.7847    0.6861    0.0000 C   0  0  0  0  0  0  0  0  0  0  0  0
    6.6507    1.1861    0.0000 C   0  0  0  0  0  0  0  0  0  0  0  0
    6.6667   -1.8554    0.0000 C   0  0  0  0  0  0  0  0  0  0  0  0
    9.3167    0.7069    0.0000 C   0  0  2  0  0  0  0  0  0  0  0  0
    8.4106   -0.8486    0.0000 C   0  0  0  0  0  0  0  0  0  0  0  0
    5.7687   -2.3832    0.0000 C   0  0  0  0  0  0  0  0  0  0  0  0
    9.3167   -0.3348    0.0000 C   0  0  0  0  0  0  0  0  0  0  0  0
    3.9478   -0.2567    0.0000 C   0  0  0  0  0  0  0  0  0  0  0  0
    7.5167   -1.3139    0.0000 C   0  0  0  0  0  0  0  0  0  0  0  0
    4.9186    0.1861    0.0000 C   0  0  0  0  0  0  0  0  0  0  0  0
    7.5167    1.6861    0.0000 C   0  0  0  0  0  0  0  0  0  0  0  0
    8.3856    2.3054    0.0000 C   0  0  0  0  0  0  0  0  0  0  0  0
    3.9312   -2.4121    0.0000 C   0  0  0  0  0  0  0  0  0  0  0  0
   10.2605    1.2421    0.0000 C   0  0  2  0  0  0  0  0  0  0  0  0
    2.9999   -0.7846    0.0000 C   0  0  0  0  0  0  0  0  0  0  0  0
    4.8589   -2.8624    0.0000 C   0  0  0  0  0  0  0  0  0  0  0  0
   10.1866    0.2136    0.0000 C   0  0  0  0  0  0  0  0  0  0  0  0
    2.9916   -1.8696    0.0000 C   0  0  0  0  0  0  0  0  0  0  0  0
    9.3167    2.8624    0.0000 C   0  0  0  0  0  0  0  0  0  0  0  0
   10.2605    2.3271    0.0000 C   0  0  0  0  0  0  0  0  0  0  0  0
   11.1246    0.7388    0.0000 C   0  0  0  0  0  0  0  0  0  0  0  0
    2.0000   -0.7731    0.0000 C   0  0  0  0  0  0  0  0  0  0  0  0
    2.5100    0.0871    0.0000 C   0  0  0  0  0  0  0  0  0  0  0  0
    8.0560   -0.0081    0.0000 H   0  0  0  0  0  0  0  0  0  0  0  0
    5.6058   -1.2543    0.0000 H   0  0  0  0  0  0  0  0  0  0  0  0
    8.9427    1.5390    0.0000 H   0  0  0  0  0  0  0  0  0  0  0  0
    5.5726    1.2687    0.0000 H   0  0  0  0  0  0  0  0  0  0  0  0
    5.1741    0.5784    0.0000 H   0  0  0  0  0  0  0  0  0  0  0  0
    7.0492    1.6610    0.0000 H   0  0  0  0  0  0  0  0  0  0  0  0
    6.2522    1.6610    0.0000 H   0  0  0  0  0  0  0  0  0  0  0  0
    6.8848   -2.4358    0.0000 H   0  0  0  0  0  0  0  0  0  0  0  0
    7.2759   -1.7399    0.0000 H   0  0  0  0  0  0  0  0  0  0  0  0
    8.0060   -1.3184    0.0000 H   0  0  0  0  0  0  0  0  0  0  0  0
    8.8043   -1.3276    0.0000 H   0  0  0  0  0  0  0  0  0  0  0  0
    5.3714   -2.8592    0.0000 H   0  0  0  0  0  0  0  0  0  0  0  0
    6.1697   -2.8561    0.0000 H   0  0  0  0  0  0  0  0  0  0  0  0
    9.5258   -0.9184    0.0000 H   0  0  0  0  0  0  0  0  0  0  0  0
    9.9276   -0.2287    0.0000 H   0  0  0  0  0  0  0  0  0  0  0  0
    4.3560    0.2100    0.0000 H   0  0  0  0  0  0  0  0  0  0  0  0
    3.5579    0.2253    0.0000 H   0  0  0  0  0  0  0  0  0  0  0  0
    7.2067   -1.8509    0.0000 H   0  0  0  0  0  0  0  0  0  0  0  0
    8.0536   -1.6239    0.0000 H   0  0  0  0  0  0  0  0  0  0  0  0
    7.8267   -0.7770    0.0000 H   0  0  0  0  0  0  0  0  0  0  0  0
    4.3080    0.2937    0.0000 H   0  0  0  0  0  0  0  0  0  0  0  0
    4.7066   -0.3965    0.0000 H   0  0  0  0  0  0  0  0  0  0  0  0
    8.1367    1.6861    0.0000 H   0  0  0  0  0  0  0  0  0  0  0  0
    7.5167    2.3061    0.0000 H   0  0  0  0  0  0  0  0  0  0  0  0
    6.8967    1.6861    0.0000 H   0  0  0  0  0  0  0  0  0  0  0  0
    8.1631    2.8841    0.0000 H   0  0  0  0  0  0  0  0  0  0  0  0
    7.7773    2.1852    0.0000 H   0  0  0  0  0  0  0  0  0  0  0  0
    3.5339   -2.8881    0.0000 H   0  0  0  0  0  0  0  0  0  0  0  0
    4.3322   -2.8850    0.0000 H   0  0  0  0  0  0  0  0  0  0  0  0
   10.7980    1.5511    0.0000 H   0  0  0  0  0  0  0  0  0  0  0  0
    4.2389   -2.8576    0.0000 H   0  0  0  0  0  0  0  0  0  0  0  0
    4.8541   -3.4823    0.0000 H   0  0  0  0  0  0  0  0  0  0  0  0
    5.4789   -2.8671    0.0000 H   0  0  0  0  0  0  0  0  0  0  0  0
    9.8807   -0.3257    0.0000 H   0  0  0  0  0  0  0  0  0  0  0  0
   10.7259   -0.0923    0.0000 H   0  0  0  0  0  0  0  0  0  0  0  0
   10.4924    0.7529    0.0000 H   0  0  0  0  0  0  0  0  0  0  0  0
    9.7103    3.3414    0.0000 H   0  0  0  0  0  0  0  0  0  0  0  0
    8.9121    3.3321    0.0000 H   0  0  0  0  0  0  0  0  0  0  0  0
   10.8125    0.2030    0.0000 H   0  0  0  0  0  0  0  0  0  0  0  0
   11.6603    0.4267    0.0000 H   0  0  0  0  0  0  0  0  0  0  0  0
   11.4367    1.2745    0.0000 H   0  0  0  0  0  0  0  0  0  0  0  0
    2.0072   -0.1531    0.0000 H   0  0  0  0  0  0  0  0  0  0  0  0
    1.3800   -0.7659    0.0000 H   0  0  0  0  0  0  0  0  0  0  0  0
    1.9928   -1.3930    0.0000 H   0  0  0  0  0  0  0  0  0  0  0  0
    3.0505    0.3909    0.0000 H   0  0  0  0  0  0  0  0  0  0  0  0
    2.2062    0.6276    0.0000 H   0  0  0  0  0  0  0  0  0  0  0  0
    1.9695   -0.2167    0.0000 H   0  0  0  0  0  0  0  0  0  0  0  0
    4.3817    1.4961    0.0000 H   0  0  0  0  0  0  0  0  0  0  0  0
  1 20  1  0  0  0  0
  1 81  1  0  0  0  0
  2 28  2  0  0  0  0
  3 30  2  0  0  0  0
  4  5  1  0  0  0  0
  4  6  1  0  0  0  0
  4 13  1  0  0  0  0
  4 19  1  6  0  0  0
  5  8  1  0  0  0  0
  5 11  1  0  0  0  0
  5 20  1  0  0  0  0
  6  7  1  0  0  0  0
  6 15  1  0  0  0  0
  6 34  1  0  0  0  0
  7  9  1  0  0  0  0
  7 12  1  0  0  0  0
  7 21  1  6  0  0  0
  8 10  1  0  0  0  0
  8 18  1  0  0  0  0
  8 35  1  6  0  0  0
  9 14  1  0  0  0  0
  9 22  1  0  0  0  0
  9 36  1  0  0  0  0
 10 16  1  0  0  0  0
 10 23  1  0  0  0  0
 10 26  1  6  0  0  0
 11 12  1  0  0  0  0
 11 37  1  0  0  0  0
 11 38  1  0  0  0  0
 12 39  1  0  0  0  0
 12 40  1  0  0  0  0
 13 16  1  0  0  0  0
 13 41  1  0  0  0  0
 13 42  1  0  0  0  0
 14 17  1  0  0  0  0
 14 24  1  0  0  0  0
 14 27  1  6  0  0  0
 15 17  1  0  0  0  0
 15 43  1  0  0  0  0
 15 44  1  0  0  0  0
 16 45  1  0  0  0  0
 16 46  1  0  0  0  0
 17 47  1  0  0  0  0
 17 48  1  0  0  0  0
 18 25  1  0  0  0  0
 18 49  1  0  0  0  0
 18 50  1  0  0  0  0
 19 51  1  0  0  0  0
 19 52  1  0  0  0  0
 19 53  1  0  0  0  0
 20 54  1  0  0  0  0
 20 55  1  0  0  0  0
 21 56  1  0  0  0  0
 21 57  1  0  0  0  0
 21 58  1  0  0  0  0
 22 29  1  0  0  0  0
 22 59  1  0  0  0  0
 22 60  1  0  0  0  0
 23 28  1  0  0  0  0
 23 61  1  0  0  0  0
 23 62  1  0  0  0  0
 24 30  1  0  0  0  0
 24 31  1  6  0  0  0
 24 63  1  0  0  0  0
 25 28  1  0  0  0  0
 25 32  1  0  0  0  0
 25 33  1  0  0  0  0
 26 64  1  0  0  0  0
 26 65  1  0  0  0  0
 26 66  1  0  0  0  0
 27 67  1  0  0  0  0
 27 68  1  0  0  0  0
 27 69  1  0  0  0  0
 29 30  1  0  0  0  0
 29 70  1  0  0  0  0
 29 71  1  0  0  0  0
 31 72  1  0  0  0  0
 31 73  1  0  0  0  0
 31 74  1  0  0  0  0
 32 75  1  0  0  0  0
 32 76  1  0  0  0  0
 32 77  1  0  0  0  0
 33 78  1  0  0  0  0
 33 79  1  0  0  0  0
 33 80  1  0  0  0  0
M  END
> <PUBCHEM_COMPOUND_CID>
354003

> <PUBCHEM_COMPOUND_CANONICALIZED>
1

> <PUBCHEM_CACTVS_COMPLEXITY>
876

> <PUBCHEM_CACTVS_HBOND_ACCEPTOR>
3

> <PUBCHEM_CACTVS_HBOND_DONOR>
1

> <PUBCHEM_CACTVS_ROTATABLE_BOND>
1

> <PUBCHEM_CACTVS_SUBSKEYS>
AAADcfB4MAAAAAAAAAAAAAAAAAAAAAAAAAAwYMGDAAAAAADAAAAAGgAACAAADwSggAICAAAAAgAIAIAQAAAAAAAAAAAAAAEAAAAAEBIAAAAAQAAEAAAAAAGIyPCPgAAAAAAAAACAAAQAACAAAAAAAAAAAA==

> <PUBCHEM_IUPAC_OPENEYE_NAME>
(4R,4aS,6bR,8aS,12aR,14aS)-6a-(hydroxymethyl)-4,4a,6b,8a,11,11,14a-heptamethyl-1,2,4,5,6,6a,7,8,9,12,12a,13,14,14b-tetradecahydropicene-3,10-dione

> <PUBCHEM_IUPAC_CAS_NAME>
(4R,4aS,6bR,8aS,12aR,14aS)-6a-(hydroxymethyl)-4,4a,6b,8a,11,11,14a-heptamethyl-1,2,4,5,6,6a,7,8,9,12,12a,13,14,14b-tetradecahydropicene-3,10-dione

> <PUBCHEM_IUPAC_NAME_MARKUP>
(4<I>R</I>,4<I>a</I><I>S</I>,6<I>b</I><I>R</I>,8<I>a</I><I>S</I>,12<I>a</I><I>R</I>,14<I>a</I><I>S</I>)-6<I>a</I>-(hydroxymethyl)-4,4<I>a</I>,6<I>b</I>,8<I>a</I>,11,11,14<I>a</I>-heptamethyl-1,2,4,5,6,6<I>a</I>,7,8,9,12,12<I>a</I>,13,14,14<I>b</I>-tetradecahydropicene-3,10-dione

> <PUBCHEM_IUPAC_NAME>
(4R,4aS,6bR,8aS,12aR,14aS)-6a-(hydroxymethyl)-4,4a,6b,8a,11,11,14a-heptamethyl-1,2,4,5,6,6a,7,8,9,12,12a,13,14,14b-tetradecahydropicene-3,10-dione

> <PUBCHEM_IUPAC_SYSTEMATIC_NAME>
(4R,4aS,6bR,8aS,12aR,14aS)-6a-(hydroxymethyl)-4,4a,6b,8a,11,11,14a-heptamethyl-1,2,4,5,6,6a,7,8,9,12,12a,13,14,14b-tetradecahydropicene-3,10-dione

> <PUBCHEM_IUPAC_TRADITIONAL_NAME>
(4R,4aS,6bR,8aS,12aR,14aS)-4,4a,6b,8a,11,11,14a-heptamethyl-6a-methylol-1,2,4,5,6,6a,7,8,9,12,12a,13,14,14b-tetradecahydropicene-3,10-quinone

> <PUBCHEM_IUPAC_INCHI>
InChI=1S/C30H48O3/c1-19-20(32)8-9-21-27(19,5)11-10-22-28(21,6)13-15-30(18-31)23-16-25(2,3)24(33)17-26(23,4)12-14-29(22,30)7/h19,21-23,31H,8-18H2,1-7H3/t19-,21?,22?,23+,26-,27+,28-,29+,30?/m0/s1

> <PUBCHEM_IUPAC_INCHIKEY>
ZHJWYVRDMOUNPD-VMLBPCRSSA-N

> <PUBCHEM_XLOGP3_AA>
6.5

> <PUBCHEM_EXACT_MASS>
456.360345

> <PUBCHEM_MOLECULAR_FORMULA>
C30H48O3

> <PUBCHEM_MOLECULAR_WEIGHT>
456.7

> <PUBCHEM_OPENEYE_CAN_SMILES>
CC1C(=O)CCC2C1(CCC3C2(CCC4(C3(CCC5(C4CC(C(=O)C5)(C)C)C)C)CO)C)C

> <PUBCHEM_OPENEYE_ISO_SMILES>
C[C@H]1C(=O)CCC2[C@@]1(CCC3[C@]2(CCC4([C@@]3(CC[C@@]5([C@H]4CC(C(=O)C5)(C)C)C)C)CO)C)C

> <PUBCHEM_CACTVS_TPSA>
54.4

> <PUBCHEM_MONOISOTOPIC_WEIGHT>
456.360345

> <PUBCHEM_TOTAL_CHARGE>
0

> <PUBCHEM_HEAVY_ATOM_COUNT>
33

> <PUBCHEM_ATOM_DEF_STEREO_COUNT>
6

> <PUBCHEM_ATOM_UDEF_STEREO_COUNT>
3

> <PUBCHEM_BOND_DEF_STEREO_COUNT>
0

> <PUBCHEM_BOND_UDEF_STEREO_COUNT>
0

> <PUBCHEM_ISOTOPIC_ATOM_COUNT>
0

> <PUBCHEM_COMPONENT_COUNT>
1

> <PUBCHEM_CACTVS_TAUTO_COUNT>
-1

> <PUBCHEM_COORDINATE_TYPE>
1
5
255

> <PUBCHEM_BONDANNOTATIONS>
10  26  6
14  27  6
24  31  6
4  19  6
5  20  3
6  15  3
7  21  6
8  35  6
9  22  3

$$$$
353825
  -OEChem-04052116402D

 34 37  0     0  0  0  0  0  0999 V2000
    9.0764   -0.4453    0.0000 O   0  0  0  0  0  0  0  0  0  0  0  0
    9.0764   -2.0547    0.0000 O   0  0  0  0  0  0  0  0  0  0  0  0
    4.6660    2.2500    0.0000 O   0  0  0  0  0  0  0  0  0  0  0  0
    4.6660   -0.7500    0.0000 N   0  0  0  0  0  0  0  0  0  0  0  0
    5.5321   -0.2500    0.0000 C   0  0  0  0  0  0  0  0  0  0  0  0
    3.8000   -0.2500    0.0000 C   0  0  0  0  0  0  0  0  0  0  0  0
    6.3981   -0.7500    0.0000 C   0  0  0  0  0  0  0  0  0  0  0  0
    3.8000    0.7500    0.0000 C   0  0  0  0  0  0  0  0  0  0  0  0
    5.5321    0.7500    0.0000 C   0  0  0  0  0  0  0  0  0  0  0  0
    7.2641   -0.2500    0.0000 C   0  0  0  0  0  0  0  0  0  0  0  0
    4.6660    1.2500    0.0000 C   0  0  0  0  0  0  0  0  0  0  0  0
    8.1301   -0.7500    0.0000 C   0  0  0  0  0  0  0  0  0  0  0  0
    6.3981   -1.7500    0.0000 C   0  0  0  0  0  0  0  0  0  0  0  0
    4.6660   -1.7500    0.0000 C   0  0  0  0  0  0  0  0  0  0  0  0
    8.1301   -1.7500    0.0000 C   0  0  0  0  0  0  0  0  0  0  0  0
    2.9061   -0.7847    0.0000 C   0  0  0  0  0  0  0  0  0  0  0  0
    7.2641   -2.2500    0.0000 C   0  0  0  0  0  0  0  0  0  0  0  0
    2.9061    1.2847    0.0000 C   0  0  0  0  0  0  0  0  0  0  0  0
    2.0000   -0.2708    0.0000 C   0  0  0  0  0  0  0  0  0  0  0  0
    2.0000    0.7708    0.0000 C   0  0  0  0  0  0  0  0  0  0  0  0
    9.6600   -1.2500    0.0000 C   0  0  0  0  0  0  0  0  0  0  0  0
    6.0690    1.0600    0.0000 H   0  0  0  0  0  0  0  0  0  0  0  0
    7.2641    0.3700    0.0000 H   0  0  0  0  0  0  0  0  0  0  0  0
    5.8612   -2.0600    0.0000 H   0  0  0  0  0  0  0  0  0  0  0  0
    4.0460   -1.7500    0.0000 H   0  0  0  0  0  0  0  0  0  0  0  0
    4.6660   -2.3700    0.0000 H   0  0  0  0  0  0  0  0  0  0  0  0
    5.2860   -1.7500    0.0000 H   0  0  0  0  0  0  0  0  0  0  0  0
    2.9132   -1.4046    0.0000 H   0  0  0  0  0  0  0  0  0  0  0  0
    7.2641   -2.8700    0.0000 H   0  0  0  0  0  0  0  0  0  0  0  0
    2.9132    1.9046    0.0000 H   0  0  0  0  0  0  0  0  0  0  0  0
    1.4643   -0.5829    0.0000 H   0  0  0  0  0  0  0  0  0  0  0  0
   10.1208   -1.6647    0.0000 H   0  0  0  0  0  0  0  0  0  0  0  0
   10.1208   -0.8353    0.0000 H   0  0  0  0  0  0  0  0  0  0  0  0
    1.4643    1.0829    0.0000 H   0  0  0  0  0  0  0  0  0  0  0  0
  1 12  1  0  0  0  0
  1 21  1  0  0  0  0
  2 15  1  0  0  0  0
  2 21  1  0  0  0  0
  3 11  2  0  0  0  0
  4  5  1  0  0  0  0
  4  6  1  0  0  0  0
  4 14  1  0  0  0  0
  5  7  1  0  0  0  0
  5  9  2  0  0  0  0
  6  8  1  0  0  0  0
  6 16  2  0  0  0  0
  7 10  2  0  0  0  0
  7 13  1  0  0  0  0
  8 11  1  0  0  0  0
  8 18  2  0  0  0  0
  9 11  1  0  0  0  0
  9 22  1  0  0  0  0
 10 12  1  0  0  0  0
 10 23  1  0  0  0  0
 12 15  2  0  0  0  0
 13 17  2  0  0  0  0
 13 24  1  0  0  0  0
 14 25  1  0  0  0  0
 14 26  1  0  0  0  0
 14 27  1  0  0  0  0
 15 17  1  0  0  0  0
 16 19  1  0  0  0  0
 16 28  1  0  0  0  0
 17 29  1  0  0  0  0
 18 20  1  0  0  0  0
 18 30  1  0  0  0  0
 19 20  2  0  0  0  0
 19 31  1  0  0  0  0
 20 34  1  0  0  0  0
 21 32  1  0  0  0  0
 21 33  1  0  0  0  0
M  END
> <PUBCHEM_COMPOUND_CID>
353825

> <PUBCHEM_COMPOUND_CANONICALIZED>
1

> <PUBCHEM_CACTVS_COMPLEXITY>
461

> <PUBCHEM_CACTVS_HBOND_ACCEPTOR>
4

> <PUBCHEM_CACTVS_HBOND_DONOR>
0

> <PUBCHEM_CACTVS_ROTATABLE_BOND>
1

> <PUBCHEM_CACTVS_SUBSKEYS>
AAADccB6MAAAAAAAAAAAAAAAAAAAASAAAAAwYIAAAAAAAEiBQAAAHgAAAAAADAyBmAcyzoMABACIAqRSQACCCAAlIgAIiAEO7MgdJjrEtZukMapkwBHO6ce42JKOIAABAAACQABAAAIAAASAAAAAAAAAAA==

> <PUBCHEM_IUPAC_OPENEYE_NAME>
2-(1,3-benzodioxol-5-yl)-1-methyl-quinolin-4-one

> <PUBCHEM_IUPAC_CAS_NAME>
2-(1,3-benzodioxol-5-yl)-1-methyl-4-quinolinone

> <PUBCHEM_IUPAC_NAME_MARKUP>
2-(1,3-benzodioxol-5-yl)-1-methylquinolin-4-one

> <PUBCHEM_IUPAC_NAME>
2-(1,3-benzodioxol-5-yl)-1-methylquinolin-4-one

> <PUBCHEM_IUPAC_SYSTEMATIC_NAME>
2-(1,3-benzodioxol-5-yl)-1-methyl-quinolin-4-one

> <PUBCHEM_IUPAC_TRADITIONAL_NAME>
2-(1,3-benzodioxol-5-yl)-1-methyl-4-quinolone

> <PUBCHEM_IUPAC_INCHI>
InChI=1S/C17H13NO3/c1-18-13-5-3-2-4-12(13)15(19)9-14(18)11-6-7-16-17(8-11)21-10-20-16/h2-9H,10H2,1H3

> <PUBCHEM_IUPAC_INCHIKEY>
COBBNRKBTCBWQP-UHFFFAOYSA-N

> <PUBCHEM_XLOGP3_AA>
3.1

> <PUBCHEM_EXACT_MASS>
279.089543

> <PUBCHEM_MOLECULAR_FORMULA>
C17H13NO3

> <PUBCHEM_MOLECULAR_WEIGHT>
279.29

> <PUBCHEM_OPENEYE_CAN_SMILES>
CN1C2=CC=CC=C2C(=O)C=C1C3=CC4=C(C=C3)OCO4

> <PUBCHEM_OPENEYE_ISO_SMILES>
CN1C2=CC=CC=C2C(=O)C=C1C3=CC4=C(C=C3)OCO4

> <PUBCHEM_CACTVS_TPSA>
38.8

> <PUBCHEM_MONOISOTOPIC_WEIGHT>
279.089543

> <PUBCHEM_TOTAL_CHARGE>
0

> <PUBCHEM_HEAVY_ATOM_COUNT>
21

> <PUBCHEM_ATOM_DEF_STEREO_COUNT>
0

> <PUBCHEM_ATOM_UDEF_STEREO_COUNT>
0

> <PUBCHEM_BOND_DEF_STEREO_COUNT>
0

> <PUBCHEM_BOND_UDEF_STEREO_COUNT>
0

> <PUBCHEM_ISOTOPIC_ATOM_COUNT>
0

> <PUBCHEM_COMPONENT_COUNT>
1

> <PUBCHEM_CACTVS_TAUTO_COUNT>
-1

> <PUBCHEM_COORDINATE_TYPE>
1
5
255

> <PUBCHEM_BONDANNOTATIONS>
10  12  8
12  15  8
13  17  8
15  17  8
16  19  8
18  20  8
19  20  8
4  5  8
4  6  8
5  9  8
6  16  8
6  8  8
7  10  8
7  13  8
8  11  8
8  18  8
9  11  8

$$$$
258533
  -OEChem-04052116402D

 38 40  0     1  0  0  0  0  0999 V2000
    5.1350    0.0158    0.0000 O   0  0  0  0  0  0  0  0  0  0  0  0
    6.8671    0.0158    0.0000 O   0  0  0  0  0  0  0  0  0  0  0  0
    5.1350   -2.9842    0.0000 O   0  0  0  0  0  0  0  0  0  0  0  0
    3.4030   -1.9842    0.0000 O   0  0  0  0  0  0  0  0  0  0  0  0
    6.8671   -1.9842    0.0000 O   0  0  0  0  0  0  0  0  0  0  0  0
    2.5369   -0.4842    0.0000 O   0  0  0  0  0  0  0  0  0  0  0  0
    6.3671    2.5456    0.0000 N   0  0  0  0  0  0  0  0  0  0  0  0
    5.1350   -1.9842    0.0000 C   0  0  3  0  0  0  0  0  0  0  0  0
    4.2690   -1.4842    0.0000 C   0  0  3  0  0  0  0  0  0  0  0  0
    6.0010   -1.4842    0.0000 C   0  0  3  0  0  0  0  0  0  0  0  0
    4.2690   -0.4842    0.0000 C   0  0  3  0  0  0  0  0  0  0  0  0
    6.0010   -0.4842    0.0000 C   0  0  3  0  0  0  0  0  0  0  0  0
    3.4030    0.0158    0.0000 C   0  0  0  0  0  0  0  0  0  0  0  0
    6.8671    1.0158    0.0000 C   0  0  0  0  0  0  0  0  0  0  0  0
    7.6718    1.5994    0.0000 C   0  0  0  0  0  0  0  0  0  0  0  0
    7.3611    2.5499    0.0000 C   0  0  0  0  0  0  0  0  0  0  0  0
    6.0623    1.5994    0.0000 C   0  0  0  0  0  0  0  0  0  0  0  0
    8.6503    1.3932    0.0000 C   0  0  0  0  0  0  0  0  0  0  0  0
    8.0290    3.2942    0.0000 C   0  0  0  0  0  0  0  0  0  0  0  0
    9.3181    2.1375    0.0000 C   0  0  0  0  0  0  0  0  0  0  0  0
    9.0075    3.0880    0.0000 C   0  0  0  0  0  0  0  0  0  0  0  0
    4.5981   -2.2942    0.0000 H   0  0  0  0  0  0  0  0  0  0  0  0
    4.2690   -2.1042    0.0000 H   0  0  0  0  0  0  0  0  0  0  0  0
    6.0010   -2.1042    0.0000 H   0  0  0  0  0  0  0  0  0  0  0  0
    4.2690    0.1358    0.0000 H   0  0  0  0  0  0  0  0  0  0  0  0
    6.0010    0.1358    0.0000 H   0  0  0  0  0  0  0  0  0  0  0  0
    3.8015    0.4907    0.0000 H   0  0  0  0  0  0  0  0  0  0  0  0
    3.0044    0.4907    0.0000 H   0  0  0  0  0  0  0  0  0  0  0  0
    4.5981   -3.2942    0.0000 H   0  0  0  0  0  0  0  0  0  0  0  0
    3.4030   -2.6042    0.0000 H   0  0  0  0  0  0  0  0  0  0  0  0
    6.8671   -2.6042    0.0000 H   0  0  0  0  0  0  0  0  0  0  0  0
    5.4730    1.4068    0.0000 H   0  0  0  0  0  0  0  0  0  0  0  0
    2.0000   -0.1742    0.0000 H   0  0  0  0  0  0  0  0  0  0  0  0
    6.0009    3.0459    0.0000 H   0  0  0  0  0  0  0  0  0  0  0  0
    8.8429    0.8039    0.0000 H   0  0  0  0  0  0  0  0  0  0  0  0
    7.8364    3.8835    0.0000 H   0  0  0  0  0  0  0  0  0  0  0  0
    9.9248    2.0096    0.0000 H   0  0  0  0  0  0  0  0  0  0  0  0
    9.4216    3.5495    0.0000 H   0  0  0  0  0  0  0  0  0  0  0  0
  1 11  1  0  0  0  0
  1 12  1  0  0  0  0
  2 12  1  0  0  0  0
  2 14  1  0  0  0  0
  3  8  1  0  0  0  0
  3 29  1  0  0  0  0
  4  9  1  0  0  0  0
  4 30  1  0  0  0  0
  5 10  1  0  0  0  0
  5 31  1  0  0  0  0
  6 13  1  0  0  0  0
  6 33  1  0  0  0  0
  7 16  1  0  0  0  0
  7 17  1  0  0  0  0
  7 34  1  0  0  0  0
  8  9  1  0  0  0  0
  8 10  1  0  0  0  0
  8 22  1  0  0  0  0
  9 11  1  0  0  0  0
  9 23  1  0  0  0  0
 10 12  1  0  0  0  0
 10 24  1  0  0  0  0
 11 13  1  0  0  0  0
 11 25  1  0  0  0  0
 12 26  1  0  0  0  0
 13 27  1  0  0  0  0
 13 28  1  0  0  0  0
 14 15  1  0  0  0  0
 14 17  2  0  0  0  0
 15 16  1  0  0  0  0
 15 18  2  0  0  0  0
 16 19  2  0  0  0  0
 17 32  1  0  0  0  0
 18 20  1  0  0  0  0
 18 35  1  0  0  0  0
 19 21  1  0  0  0  0
 19 36  1  0  0  0  0
 20 21  2  0  0  0  0
 20 37  1  0  0  0  0
 21 38  1  0  0  0  0
M  END
> <PUBCHEM_COMPOUND_CID>
258533

> <PUBCHEM_COMPOUND_CANONICALIZED>
1

> <PUBCHEM_CACTVS_COMPLEXITY>
356

> <PUBCHEM_CACTVS_HBOND_ACCEPTOR>
6

> <PUBCHEM_CACTVS_HBOND_DONOR>
5

> <PUBCHEM_CACTVS_ROTATABLE_BOND>
3

> <PUBCHEM_CACTVS_SUBSKEYS>
AAADceByOAAAAAAAAAAAAAAAAAAAAWAAAAA0QAAAAAAAAFgB8AAAHgAQCAAADBzxngc8zvLJlgCgAzRnRASCiCAxYiAI2aA/bJgfNuLEsZuneCjn0Bnf6AfQ4KwOAAAAAAACAAAAAAAAAAQAAAAAAAAAAA==

> <PUBCHEM_IUPAC_OPENEYE_NAME>
2-(hydroxymethyl)-6-(1H-indol-3-yloxy)tetrahydropyran-3,4,5-triol

> <PUBCHEM_IUPAC_CAS_NAME>
2-(hydroxymethyl)-6-(1H-indol-3-yloxy)oxane-3,4,5-triol

> <PUBCHEM_IUPAC_NAME_MARKUP>
2-(hydroxymethyl)-6-(1<I>H</I>-indol-3-yloxy)oxane-3,4,5-triol

> <PUBCHEM_IUPAC_NAME>
2-(hydroxymethyl)-6-(1H-indol-3-yloxy)oxane-3,4,5-triol

> <PUBCHEM_IUPAC_SYSTEMATIC_NAME>
2-(hydroxymethyl)-6-(1H-indol-3-yloxy)oxane-3,4,5-triol

> <PUBCHEM_IUPAC_TRADITIONAL_NAME>
2-(1H-indol-3-yloxy)-6-methylol-tetrahydropyran-3,4,5-triol

> <PUBCHEM_IUPAC_INCHI>
InChI=1S/C14H17NO6/c16-6-10-11(17)12(18)13(19)14(21-10)20-9-5-15-8-4-2-1-3-7(8)9/h1-5,10-19H,6H2

> <PUBCHEM_IUPAC_INCHIKEY>
XVARCVCWNFACQC-UHFFFAOYSA-N

> <PUBCHEM_XLOGP3_AA>
-0.1

> <PUBCHEM_EXACT_MASS>
295.105587

> <PUBCHEM_MOLECULAR_FORMULA>
C14H17NO6

> <PUBCHEM_MOLECULAR_WEIGHT>
295.29

> <PUBCHEM_OPENEYE_CAN_SMILES>
C1=CC=C2C(=C1)C(=CN2)OC3C(C(C(C(O3)CO)O)O)O

> <PUBCHEM_OPENEYE_ISO_SMILES>
C1=CC=C2C(=C1)C(=CN2)OC3C(C(C(C(O3)CO)O)O)O

> <PUBCHEM_CACTVS_TPSA>
115

> <PUBCHEM_MONOISOTOPIC_WEIGHT>
295.105587

> <PUBCHEM_TOTAL_CHARGE>
0

> <PUBCHEM_HEAVY_ATOM_COUNT>
21

> <PUBCHEM_ATOM_DEF_STEREO_COUNT>
0

> <PUBCHEM_ATOM_UDEF_STEREO_COUNT>
5

> <PUBCHEM_BOND_DEF_STEREO_COUNT>
0

> <PUBCHEM_BOND_UDEF_STEREO_COUNT>
0

> <PUBCHEM_ISOTOPIC_ATOM_COUNT>
0

> <PUBCHEM_COMPONENT_COUNT>
1

> <PUBCHEM_CACTVS_TAUTO_COUNT>
-1

> <PUBCHEM_COORDINATE_TYPE>
1
5
255

> <PUBCHEM_BONDANNOTATIONS>
11  13  3
14  15  8
14  17  8
15  16  8
15  18  8
16  19  8
18  20  8
19  21  8
12  2  3
20  21  8
8  3  3
9  4  3
10  5  3
7  16  8
7  17  8

$$$$
181978
  -OEChem-04052116402D

 51 50  0     1  0  0  0  0  0999 V2000
    7.9409    3.3100    0.0000 O   0  0  0  0  0  0  0  0  0  0  0  0
    7.0749    4.8100    0.0000 O   0  0  0  0  0  0  0  0  0  0  0  0
    6.2089    3.3100    0.0000 O   0  0  0  0  0  0  0  0  0  0  0  0
    9.6730    4.3100    0.0000 O   0  0  0  0  0  0  0  0  0  0  0  0
    7.9409    1.3100    0.0000 O   0  0  0  0  0  0  0  0  0  0  0  0
    9.6730    6.3100    0.0000 O   0  0  0  0  0  0  0  0  0  0  0  0
    6.2089    0.3100    0.0000 O   0  0  0  0  0  0  0  0  0  0  0  0
    7.9409    7.3100    0.0000 O   0  0  0  0  0  0  0  0  0  0  0  0
    4.4768    1.3100    0.0000 O   0  0  0  0  0  0  0  0  0  0  0  0
    6.2089    7.3100    0.0000 O   0  0  0  0  0  0  0  0  0  0  0  0
    3.6108    2.8100    0.0000 O   0  0  0  0  0  0  0  0  0  0  0  0
    0.5369    4.8100    0.0000 O   0  0  0  0  0  0  0  0  0  0  0  0
    6.6419    9.6200    0.0000 O   0  0  0  0  0  0  0  0  0  0  0  0
    7.9409    4.3100    0.0000 C   0  0  1  0  0  0  0  0  0  0  0  0
    7.0749    2.8100    0.0000 C   0  0  1  0  0  0  0  0  0  0  0  0
    8.8070    4.8100    0.0000 C   0  0  1  0  0  0  0  0  0  0  0  0
    7.0749    1.8100    0.0000 C   0  0  1  0  0  0  0  0  0  0  0  0
    8.8070    5.8100    0.0000 C   0  0  2  0  0  0  0  0  0  0  0  0
    6.2089    1.3100    0.0000 C   0  0  2  0  0  0  0  0  0  0  0  0
    7.9409    6.3100    0.0000 C   0  0  1  0  0  0  0  0  0  0  0  0
    5.3429    1.8100    0.0000 C   0  0  1  0  0  0  0  0  0  0  0  0
    7.0749    5.8100    0.0000 C   0  0  1  0  0  0  0  0  0  0  0  0
    5.3429    2.8100    0.0000 C   0  0  1  0  0  0  0  0  0  0  0  0
    6.2089    6.3100    0.0000 C   0  0  0  0  0  0  0  0  0  0  0  0
    4.4768    3.3100    0.0000 C   0  0  0  0  0  0  0  0  0  0  0  0
    8.4779    4.0000    0.0000 H   0  0  0  0  0  0  0  0  0  0  0  0
    7.0749    3.4300    0.0000 H   0  0  0  0  0  0  0  0  0  0  0  0
    9.3439    5.1200    0.0000 H   0  0  0  0  0  0  0  0  0  0  0  0
    7.0749    1.1900    0.0000 H   0  0  0  0  0  0  0  0  0  0  0  0
    8.8070    6.4300    0.0000 H   0  0  0  0  0  0  0  0  0  0  0  0
    5.6720    1.0000    0.0000 H   0  0  0  0  0  0  0  0  0  0  0  0
    8.4779    6.6200    0.0000 H   0  0  0  0  0  0  0  0  0  0  0  0
    5.3429    1.1900    0.0000 H   0  0  0  0  0  0  0  0  0  0  0  0
    6.5380    5.5000    0.0000 H   0  0  0  0  0  0  0  0  0  0  0  0
    5.3429    3.4300    0.0000 H   0  0  0  0  0  0  0  0  0  0  0  0
    5.5983    6.4177    0.0000 H   0  0  0  0  0  0  0  0  0  0  0  0
    5.9968    5.7274    0.0000 H   0  0  0  0  0  0  0  0  0  0  0  0
    4.8754    3.7850    0.0000 H   0  0  0  0  0  0  0  0  0  0  0  0
    4.0783    3.7850    0.0000 H   0  0  0  0  0  0  0  0  0  0  0  0
   10.2099    4.6200    0.0000 H   0  0  0  0  0  0  0  0  0  0  0  0
    7.9409    0.6900    0.0000 H   0  0  0  0  0  0  0  0  0  0  0  0
    9.6730    6.9300    0.0000 H   0  0  0  0  0  0  0  0  0  0  0  0
    5.6720    0.0000    0.0000 H   0  0  0  0  0  0  0  0  0  0  0  0
    8.4779    7.6200    0.0000 H   0  0  0  0  0  0  0  0  0  0  0  0
    4.4768    0.6900    0.0000 H   0  0  0  0  0  0  0  0  0  0  0  0
    5.6720    7.6200    0.0000 H   0  0  0  0  0  0  0  0  0  0  0  0
    3.0739    3.1200    0.0000 H   0  0  0  0  0  0  0  0  0  0  0  0
    1.0739    5.1200    0.0000 H   0  0  0  0  0  0  0  0  0  0  0  0
    0.0000    5.1200    0.0000 H   0  0  0  0  0  0  0  0  0  0  0  0
    7.1788    9.9300    0.0000 H   0  0  0  0  0  0  0  0  0  0  0  0
    6.1050    9.9300    0.0000 H   0  0  0  0  0  0  0  0  0  0  0  0
 14  1  1  1  0  0  0
 15  1  1  6  0  0  0
  2 14  1  0  0  0  0
  2 22  1  0  0  0  0
  3 15  1  0  0  0  0
  3 23  1  0  0  0  0
 16  4  1  1  0  0  0
  4 40  1  0  0  0  0
 17  5  1  6  0  0  0
  5 41  1  0  0  0  0
 18  6  1  6  0  0  0
  6 42  1  0  0  0  0
 19  7  1  1  0  0  0
  7 43  1  0  0  0  0
 20  8  1  1  0  0  0
  8 44  1  0  0  0  0
 21  9  1  6  0  0  0
  9 45  1  0  0  0  0
 10 24  1  0  0  0  0
 10 46  1  0  0  0  0
 11 25  1  0  0  0  0
 11 47  1  0  0  0  0
 12 48  1  0  0  0  0
 12 49  1  0  0  0  0
 13 50  1  0  0  0  0
 13 51  1  0  0  0  0
 14 16  1  0  0  0  0
 14 26  1  0  0  0  0
 15 17  1  0  0  0  0
 15 27  1  0  0  0  0
 16 18  1  0  0  0  0
 16 28  1  0  0  0  0
 17 19  1  0  0  0  0
 17 29  1  0  0  0  0
 18 20  1  0  0  0  0
 18 30  1  0  0  0  0
 19 21  1  0  0  0  0
 19 31  1  0  0  0  0
 20 22  1  0  0  0  0
 20 32  1  0  0  0  0
 21 23  1  0  0  0  0
 21 33  1  0  0  0  0
 22 24  1  6  0  0  0
 22 34  1  0  0  0  0
 23 25  1  1  0  0  0
 23 35  1  0  0  0  0
 24 36  1  0  0  0  0
 24 37  1  0  0  0  0
 25 38  1  0  0  0  0
 25 39  1  0  0  0  0
M  END
> <PUBCHEM_COMPOUND_CID>
181978

> <PUBCHEM_COMPOUND_CANONICALIZED>
1

> <PUBCHEM_CACTVS_COMPLEXITY>
348

> <PUBCHEM_CACTVS_HBOND_ACCEPTOR>
13

> <PUBCHEM_CACTVS_HBOND_DONOR>
10

> <PUBCHEM_CACTVS_ROTATABLE_BOND>
4

> <PUBCHEM_CACTVS_SUBSKEYS>
AAADceBwPAAAAAAAAAAAAAAAAAAAAAAAAAAkSAAAAAAAAAAAAAAAGgAACAAACBSwgAMACAAABgAAAAAAAAAAAAAAAAAAAAAAAAAREAIAAAAiQAAFAAAHAAHAYAwAAAAAAAAAAAAAAAAAAAAAAAAAAAAAAA==

> <PUBCHEM_IUPAC_OPENEYE_NAME>
(2R,3S,4S,5R,6R)-2-(hydroxymethyl)-6-[(2R,3R,4S,5S,6R)-3,4,5-trihydroxy-6-(hydroxymethyl)tetrahydropyran-2-yl]oxy-tetrahydropyran-3,4,5-triol;dihydrate

> <PUBCHEM_IUPAC_CAS_NAME>
(2R,3S,4S,5R,6R)-2-(hydroxymethyl)-6-[[(2R,3R,4S,5S,6R)-3,4,5-trihydroxy-6-(hydroxymethyl)-2-oxanyl]oxy]oxane-3,4,5-triol;dihydrate

> <PUBCHEM_IUPAC_NAME_MARKUP>
(2<I>R</I>,3<I>S</I>,4<I>S</I>,5<I>R</I>,6<I>R</I>)-2-(hydroxymethyl)-6-[(2<I>R</I>,3<I>R</I>,4<I>S</I>,5<I>S</I>,6<I>R</I>)-3,4,5-trihydroxy-6-(hydroxymethyl)oxan-2-yl]oxyoxane-3,4,5-triol;dihydrate

> <PUBCHEM_IUPAC_NAME>
(2R,3S,4S,5R,6R)-2-(hydroxymethyl)-6-[(2R,3R,4S,5S,6R)-3,4,5-trihydroxy-6-(hydroxymethyl)oxan-2-yl]oxyoxane-3,4,5-triol;dihydrate

> <PUBCHEM_IUPAC_SYSTEMATIC_NAME>
(2R,3S,4S,5R,6R)-2-(hydroxymethyl)-6-[(2R,3R,4S,5S,6R)-6-(hydroxymethyl)-3,4,5-tris(oxidanyl)oxan-2-yl]oxy-oxane-3,4,5-triol;dihydrate

> <PUBCHEM_IUPAC_TRADITIONAL_NAME>
(2R,3S,4S,5R,6R)-2-methylol-6-[(2R,3R,4S,5S,6R)-3,4,5-trihydroxy-6-methylol-tetrahydropyran-2-yl]oxy-tetrahydropyran-3,4,5-triol;dihydrate

> <PUBCHEM_IUPAC_INCHI>
InChI=1S/C12H22O11.2H2O/c13-1-3-5(15)7(17)9(19)11(21-3)23-12-10(20)8(18)6(16)4(2-14)22-12;;/h3-20H,1-2H2;2*1H2/t3-,4-,5-,6-,7+,8+,9-,10-,11-,12-;;/m1../s1

> <PUBCHEM_IUPAC_INCHIKEY>
DPVHGFAJLZWDOC-PVXXTIHASA-N

> <PUBCHEM_EXACT_MASS>
378.137341

> <PUBCHEM_MOLECULAR_FORMULA>
C12H26O13

> <PUBCHEM_MOLECULAR_WEIGHT>
378.33

> <PUBCHEM_OPENEYE_CAN_SMILES>
C(C1C(C(C(C(O1)OC2C(C(C(C(O2)CO)O)O)O)O)O)O)O.O.O

> <PUBCHEM_OPENEYE_ISO_SMILES>
C([C@@H]1[C@H]([C@@H]([C@H]([C@H](O1)O[C@@H]2[C@@H]([C@H]([C@@H]([C@H](O2)CO)O)O)O)O)O)O)O.O.O

> <PUBCHEM_CACTVS_TPSA>
192

> <PUBCHEM_MONOISOTOPIC_WEIGHT>
378.137341

> <PUBCHEM_TOTAL_CHARGE>
0

> <PUBCHEM_HEAVY_ATOM_COUNT>
25

> <PUBCHEM_ATOM_DEF_STEREO_COUNT>
10

> <PUBCHEM_ATOM_UDEF_STEREO_COUNT>
0

> <PUBCHEM_BOND_DEF_STEREO_COUNT>
0

> <PUBCHEM_BOND_UDEF_STEREO_COUNT>
0

> <PUBCHEM_ISOTOPIC_ATOM_COUNT>
0

> <PUBCHEM_COMPONENT_COUNT>
3

> <PUBCHEM_CACTVS_TAUTO_COUNT>
-1

> <PUBCHEM_COORDINATE_TYPE>
1
5
255

> <PUBCHEM_BONDANNOTATIONS>
14  1  5
15  1  6
22  24  6
23  25  5
16  4  5
17  5  6
18  6  6
19  7  5
20  8  5
21  9  6

$$$$
171548
  -OEChem-04052116402D

 32 33  0     1  0  0  0  0  0999 V2000
    5.4765   -1.7328    0.0000 S   0  0  0  0  0  0  0  0  0  0  0  0
    9.5452   -1.7328    0.0000 O   0  0  0  0  0  0  0  0  0  0  0  0
    2.1926    2.5422    0.0000 O   0  0  0  0  0  0  0  0  0  0  0  0
    3.8390    3.0802    0.0000 O   0  0  0  0  0  0  0  0  0  0  0  0
    7.9574   -0.9238    0.0000 N   0  0  0  0  0  0  0  0  0  0  0  0
    7.9574   -2.5418    0.0000 N   0  0  0  0  0  0  0  0  0  0  0  0
    7.0063   -1.2328    0.0000 C   0  0  1  0  0  0  0  0  0  0  0  0
    7.0063   -2.2328    0.0000 C   0  0  2  0  0  0  0  0  0  0  0  0
    6.0601   -0.9281    0.0000 C   0  0  2  0  0  0  0  0  0  0  0  0
    6.0601   -2.5375    0.0000 C   0  0  0  0  0  0  0  0  0  0  0  0
    5.7495    0.0225    0.0000 C   0  0  0  0  0  0  0  0  0  0  0  0
    4.7710    0.2287    0.0000 C   0  0  0  0  0  0  0  0  0  0  0  0
    8.5452   -1.7328    0.0000 C   0  0  0  0  0  0  0  0  0  0  0  0
    4.4603    1.1792    0.0000 C   0  0  0  0  0  0  0  0  0  0  0  0
    3.4818    1.3854    0.0000 C   0  0  0  0  0  0  0  0  0  0  0  0
    3.1711    2.3359    0.0000 C   0  0  0  0  0  0  0  0  0  0  0  0
    7.0052   -0.3828    0.0000 H   0  0  0  0  0  0  0  0  0  0  0  0
    7.0052   -3.0828    0.0000 H   0  0  0  0  0  0  0  0  0  0  0  0
    5.4476   -0.8319    0.0000 H   0  0  0  0  0  0  0  0  0  0  0  0
    5.5227   -2.8468    0.0000 H   0  0  0  0  0  0  0  0  0  0  0  0
    6.3111   -3.1044    0.0000 H   0  0  0  0  0  0  0  0  0  0  0  0
    6.3633    0.1098    0.0000 H   0  0  0  0  0  0  0  0  0  0  0  0
    5.7700    0.6421    0.0000 H   0  0  0  0  0  0  0  0  0  0  0  0
    8.1490   -0.3341    0.0000 H   0  0  0  0  0  0  0  0  0  0  0  0
    8.1490   -3.1315    0.0000 H   0  0  0  0  0  0  0  0  0  0  0  0
    4.1571    0.1413    0.0000 H   0  0  0  0  0  0  0  0  0  0  0  0
    4.7504   -0.3910    0.0000 H   0  0  0  0  0  0  0  0  0  0  0  0
    5.0741    1.2665    0.0000 H   0  0  0  0  0  0  0  0  0  0  0  0
    4.4808    1.7988    0.0000 H   0  0  0  0  0  0  0  0  0  0  0  0
    2.8680    1.2981    0.0000 H   0  0  0  0  0  0  0  0  0  0  0  0
    3.4612    0.7658    0.0000 H   0  0  0  0  0  0  0  0  0  0  0  0
    2.0000    3.1315    0.0000 H   0  0  0  0  0  0  0  0  0  0  0  0
  1  9  1  0  0  0  0
  1 10  1  0  0  0  0
  2 13  2  0  0  0  0
  3 16  1  0  0  0  0
  3 32  1  0  0  0  0
  4 16  2  0  0  0  0
  5  7  1  0  0  0  0
  5 13  1  0  0  0  0
  5 24  1  0  0  0  0
  6  8  1  0  0  0  0
  6 13  1  0  0  0  0
  6 25  1  0  0  0  0
  7  8  1  0  0  0  0
  7  9  1  0  0  0  0
  7 17  1  6  0  0  0
  8 10  1  0  0  0  0
  8 18  1  6  0  0  0
  9 11  1  1  0  0  0
  9 19  1  0  0  0  0
 10 20  1  0  0  0  0
 10 21  1  0  0  0  0
 11 12  1  0  0  0  0
 11 22  1  0  0  0  0
 11 23  1  0  0  0  0
 12 14  1  0  0  0  0
 12 26  1  0  0  0  0
 12 27  1  0  0  0  0
 14 15  1  0  0  0  0
 14 28  1  0  0  0  0
 14 29  1  0  0  0  0
 15 16  1  0  0  0  0
 15 30  1  0  0  0  0
 15 31  1  0  0  0  0
M  END
> <PUBCHEM_COMPOUND_CID>
171548

> <PUBCHEM_COMPOUND_CANONICALIZED>
1

> <PUBCHEM_CACTVS_COMPLEXITY>
298

> <PUBCHEM_CACTVS_HBOND_ACCEPTOR>
4

> <PUBCHEM_CACTVS_HBOND_DONOR>
3

> <PUBCHEM_CACTVS_ROTATABLE_BOND>
5

> <PUBCHEM_CACTVS_SUBSKEYS>
AAADceBzMABAAAAAAAAAAAAAAAAAAWJAAAAAAAAAAAAWAAAAAAAAHgQQCAAACCjFwASBCALAAggIAACQGAAAAAAAABAAAIEIAACAQBIggAAUQAAMFgIgAAGYyKCAAAAAAAAAAAAAAAAAAAAAAAAAAAAAAA==

> <PUBCHEM_IUPAC_OPENEYE_NAME>
5-[(3aS,4S,6aR)-2-oxo-1,3,3a,4,6,6a-hexahydrothieno[3,4-d]imidazol-4-yl]pentanoic acid

> <PUBCHEM_IUPAC_CAS_NAME>
5-[(3aS,4S,6aR)-2-oxo-1,3,3a,4,6,6a-hexahydrothieno[3,4-d]imidazol-4-yl]pentanoic acid

> <PUBCHEM_IUPAC_NAME_MARKUP>
5-[(3<I>a</I><I>S</I>,4<I>S</I>,6<I>a</I><I>R</I>)-2-oxo-1,3,3<I>a</I>,4,6,6<I>a</I>-hexahydrothieno[3,4-d]imidazol-4-yl]pentanoic acid

> <PUBCHEM_IUPAC_NAME>
5-[(3aS,4S,6aR)-2-oxo-1,3,3a,4,6,6a-hexahydrothieno[3,4-d]imidazol-4-yl]pentanoic acid

> <PUBCHEM_IUPAC_SYSTEMATIC_NAME>
5-[(3aS,4S,6aR)-2-oxidanylidene-1,3,3a,4,6,6a-hexahydrothieno[3,4-d]imidazol-4-yl]pentanoic acid

> <PUBCHEM_IUPAC_TRADITIONAL_NAME>
5-[(3aS,4S,6aR)-2-keto-1,3,3a,4,6,6a-hexahydrothien[3,4-d]imidazol-4-yl]valeric acid

> <PUBCHEM_IUPAC_INCHI>
InChI=1S/C10H16N2O3S/c13-8(14)4-2-1-3-7-9-6(5-16-7)11-10(15)12-9/h6-7,9H,1-5H2,(H,13,14)(H2,11,12,15)/t6-,7-,9-/m0/s1

> <PUBCHEM_IUPAC_INCHIKEY>
YBJHBAHKTGYVGT-ZKWXMUAHSA-N

> <PUBCHEM_XLOGP3_AA>
0.3

> <PUBCHEM_EXACT_MASS>
244.088164

> <PUBCHEM_MOLECULAR_FORMULA>
C10H16N2O3S

> <PUBCHEM_MOLECULAR_WEIGHT>
244.31

> <PUBCHEM_OPENEYE_CAN_SMILES>
C1C2C(C(S1)CCCCC(=O)O)NC(=O)N2

> <PUBCHEM_OPENEYE_ISO_SMILES>
C1[C@H]2[C@@H]([C@@H](S1)CCCCC(=O)O)NC(=O)N2

> <PUBCHEM_CACTVS_TPSA>
104

> <PUBCHEM_MONOISOTOPIC_WEIGHT>
244.088164

> <PUBCHEM_TOTAL_CHARGE>
0

> <PUBCHEM_HEAVY_ATOM_COUNT>
16

> <PUBCHEM_ATOM_DEF_STEREO_COUNT>
3

> <PUBCHEM_ATOM_UDEF_STEREO_COUNT>
0

> <PUBCHEM_BOND_DEF_STEREO_COUNT>
0

> <PUBCHEM_BOND_UDEF_STEREO_COUNT>
0

> <PUBCHEM_ISOTOPIC_ATOM_COUNT>
0

> <PUBCHEM_COMPONENT_COUNT>
1

> <PUBCHEM_CACTVS_TAUTO_COUNT>
-1

> <PUBCHEM_COORDINATE_TYPE>
1
5
255

> <PUBCHEM_BONDANNOTATIONS>
7  17  6
8  18  6
9  11  5

$$$$
123954
  -OEChem-04052116402D

 12 10  0     0  0  0  0  0  0999 V2000
    1.4030    0.8660    0.0000 P   0  0  0  0  0  0  0  0  0  0  0  0
    2.2690    1.3660    0.0000 O   0  0  0  0  0  0  0  0  0  0  0  0
    0.5369    0.3660    0.0000 O   0  0  0  0  0  0  0  0  0  0  0  0
    0.9030    1.7320    0.0000 O   0  0  0  0  0  0  0  0  0  0  0  0
    1.9030    0.0000    0.0000 O   0  0  0  0  0  0  0  0  0  0  0  0
    1.4030    4.8890    0.0000 N   0  0  0  0  0  0  0  0  0  0  0  0
    2.8059    1.0560    0.0000 H   0  0  0  0  0  0  0  0  0  0  0  0
    0.0000    0.6760    0.0000 H   0  0  0  0  0  0  0  0  0  0  0  0
    1.2130    2.2690    0.0000 H   0  0  0  0  0  0  0  0  0  0  0  0
    1.9399    5.1990    0.0000 H   0  0  0  0  0  0  0  0  0  0  0  0
    0.8660    5.1990    0.0000 H   0  0  0  0  0  0  0  0  0  0  0  0
    1.4030    4.2690    0.0000 H   0  0  0  0  0  0  0  0  0  0  0  0
  1  2  1  0  0  0  0
  1  3  1  0  0  0  0
  1  4  1  0  0  0  0
  1  5  2  0  0  0  0
  2  7  1  0  0  0  0
  3  8  1  0  0  0  0
  4  9  1  0  0  0  0
  6 10  1  0  0  0  0
  6 11  1  0  0  0  0
  6 12  1  0  0  0  0
M  END
> <PUBCHEM_COMPOUND_CID>
123954

> <PUBCHEM_COMPOUND_CANONICALIZED>
1

> <PUBCHEM_CACTVS_COMPLEXITY>
49.8

> <PUBCHEM_CACTVS_HBOND_ACCEPTOR>
5

> <PUBCHEM_CACTVS_HBOND_DONOR>
4

> <PUBCHEM_CACTVS_ROTATABLE_BOND>
0

> <PUBCHEM_CACTVS_SUBSKEYS>
AAADcYACOAIAAAAAAAAAAAAAAAAAAAAAAAAAAAAAAAAAAAAAAAAAAAAQCCAAAAAAAAAAAAAAABAAQAAAAIAAAAAAAAAAAAAAAAAAAAAAAAAAAAAAAAAAAAAAAAAAAAAAAAAAAAAAAAAAAAAAAAAAAAAAAA==

> <PUBCHEM_IUPAC_OPENEYE_NAME>
ammonia;phosphoric acid

> <PUBCHEM_IUPAC_CAS_NAME>
ammonia;phosphoric acid

> <PUBCHEM_IUPAC_NAME_MARKUP>
azane;phosphoric acid

> <PUBCHEM_IUPAC_NAME>
azane;phosphoric acid

> <PUBCHEM_IUPAC_SYSTEMATIC_NAME>
azane;phosphoric acid

> <PUBCHEM_IUPAC_TRADITIONAL_NAME>
ammonia;phosphoric acid

> <PUBCHEM_IUPAC_INCHI>
InChI=1S/H3N.H3O4P/c;1-5(2,3)4/h1H3;(H3,1,2,3,4)

> <PUBCHEM_IUPAC_INCHIKEY>
LFVGISIMTYGQHF-UHFFFAOYSA-N

> <PUBCHEM_EXACT_MASS>
115.003445

> <PUBCHEM_MOLECULAR_FORMULA>
H6NO4P

> <PUBCHEM_MOLECULAR_WEIGHT>
115.03

> <PUBCHEM_OPENEYE_CAN_SMILES>
N.OP(=O)(O)O

> <PUBCHEM_OPENEYE_ISO_SMILES>
N.OP(=O)(O)O

> <PUBCHEM_CACTVS_TPSA>
78.8

> <PUBCHEM_MONOISOTOPIC_WEIGHT>
115.003445

> <PUBCHEM_TOTAL_CHARGE>
0

> <PUBCHEM_HEAVY_ATOM_COUNT>
6

> <PUBCHEM_ATOM_DEF_STEREO_COUNT>
0

> <PUBCHEM_ATOM_UDEF_STEREO_COUNT>
0

> <PUBCHEM_BOND_DEF_STEREO_COUNT>
0

> <PUBCHEM_BOND_UDEF_STEREO_COUNT>
0

> <PUBCHEM_ISOTOPIC_ATOM_COUNT>
0

> <PUBCHEM_COMPONENT_COUNT>
2

> <PUBCHEM_CACTVS_TAUTO_COUNT>
-1

> <PUBCHEM_COORDINATE_TYPE>
1
5
255

$$$$
119394
  -OEChem-04052116402D

 79 82  0     1  0  0  0  0  0999 V2000
    2.5357   -3.6598    0.0000 O   0  0  0  0  0  0  0  0  0  0  0  0
    7.9288   -0.6074    0.0000 C   0  0  1  0  0  0  0  0  0  0  0  0
    7.9288   -1.6074    0.0000 C   0  0  2  0  0  0  0  0  0  0  0  0
    7.0628   -2.1074    0.0000 C   0  0  1  0  0  0  0  0  0  0  0  0
    6.1968   -1.6074    0.0000 C   0  0  1  0  0  0  0  0  0  0  0  0
    5.2868   -2.1143    0.0000 C   0  0  2  0  0  0  0  0  0  0  0  0
    8.8750   -0.3027    0.0000 C   0  0  2  0  0  0  0  0  0  0  0  0
    7.0628   -0.1074    0.0000 C   0  0  0  0  0  0  0  0  0  0  0  0
    5.2787   -3.1559    0.0000 C   0  0  1  0  0  0  0  0  0  0  0  0
    6.1968   -0.6074    0.0000 C   0  0  0  0  0  0  0  0  0  0  0  0
    8.8750   -1.9122    0.0000 C   0  0  0  0  0  0  0  0  0  0  0  0
    7.0789   -3.1489    0.0000 C   0  0  0  0  0  0  0  0  0  0  0  0
    9.4586   -1.1074    0.0000 C   0  0  0  0  0  0  0  0  0  0  0  0
    6.1808   -3.6767    0.0000 C   0  0  0  0  0  0  0  0  0  0  0  0
    4.3599   -1.5502    0.0000 C   0  0  0  0  0  0  0  0  0  0  0  0
    7.9288    0.3926    0.0000 C   0  0  0  0  0  0  0  0  0  0  0  0
    9.1857    0.6478    0.0000 C   0  0  1  0  0  0  0  0  0  0  0  0
    4.3433   -3.7056    0.0000 C   0  0  0  0  0  0  0  0  0  0  0  0
    5.2945   -1.1143    0.0000 C   0  0  0  0  0  0  0  0  0  0  0  0
    3.4120   -2.0781    0.0000 C   0  0  0  0  0  0  0  0  0  0  0  0
    3.4037   -3.1631    0.0000 C   0  0  2  0  0  0  0  0  0  0  0  0
   10.1642    0.8540    0.0000 C   0  0  0  0  0  0  0  0  0  0  0  0
    8.5179    1.3921    0.0000 C   0  0  0  0  0  0  0  0  0  0  0  0
   10.4749    1.8046    0.0000 C   0  0  0  0  0  0  0  0  0  0  0  0
   11.4534    2.0108    0.0000 C   0  0  2  0  0  0  0  0  0  0  0  0
   11.7640    2.9613    0.0000 C   0  0  0  0  0  0  0  0  0  0  0  0
   12.1212    1.2665    0.0000 C   0  0  0  0  0  0  0  0  0  0  0  0
   12.7425    3.1675    0.0000 C   0  0  0  0  0  0  0  0  0  0  0  0
   11.0962    3.7056    0.0000 C   0  0  0  0  0  0  0  0  0  0  0  0
    8.0188   -2.4527    0.0000 H   0  0  0  0  0  0  0  0  0  0  0  0
    7.8022   -2.5267    0.0000 H   0  0  0  0  0  0  0  0  0  0  0  0
    6.9329   -1.1824    0.0000 H   0  0  0  0  0  0  0  0  0  0  0  0
    9.7148   -0.1708    0.0000 H   0  0  0  0  0  0  0  0  0  0  0  0
    7.4613    0.3675    0.0000 H   0  0  0  0  0  0  0  0  0  0  0  0
    6.6643    0.3675    0.0000 H   0  0  0  0  0  0  0  0  0  0  0  0
    5.2820   -4.0059    0.0000 H   0  0  0  0  0  0  0  0  0  0  0  0
    5.9847   -0.0248    0.0000 H   0  0  0  0  0  0  0  0  0  0  0  0
    5.5862   -0.7151    0.0000 H   0  0  0  0  0  0  0  0  0  0  0  0
    8.6240   -2.4791    0.0000 H   0  0  0  0  0  0  0  0  0  0  0  0
    9.4124   -2.2214    0.0000 H   0  0  0  0  0  0  0  0  0  0  0  0
    7.2969   -3.7293    0.0000 H   0  0  0  0  0  0  0  0  0  0  0  0
    7.6880   -3.0334    0.0000 H   0  0  0  0  0  0  0  0  0  0  0  0
    9.9195   -1.5222    0.0000 H   0  0  0  0  0  0  0  0  0  0  0  0
    9.9195   -0.6927    0.0000 H   0  0  0  0  0  0  0  0  0  0  0  0
    5.7835   -4.1527    0.0000 H   0  0  0  0  0  0  0  0  0  0  0  0
    6.5818   -4.1496    0.0000 H   0  0  0  0  0  0  0  0  0  0  0  0
    4.7681   -1.0835    0.0000 H   0  0  0  0  0  0  0  0  0  0  0  0
    3.9700   -1.0682    0.0000 H   0  0  0  0  0  0  0  0  0  0  0  0
    8.5488    0.3926    0.0000 H   0  0  0  0  0  0  0  0  0  0  0  0
    7.9288    1.0126    0.0000 H   0  0  0  0  0  0  0  0  0  0  0  0
    7.3088    0.3926    0.0000 H   0  0  0  0  0  0  0  0  0  0  0  0
    9.3783    1.2371    0.0000 H   0  0  0  0  0  0  0  0  0  0  0  0
    3.9460   -4.1816    0.0000 H   0  0  0  0  0  0  0  0  0  0  0  0
    4.7443   -4.1785    0.0000 H   0  0  0  0  0  0  0  0  0  0  0  0
    5.9145   -1.1191    0.0000 H   0  0  0  0  0  0  0  0  0  0  0  0
    5.2993   -0.4943    0.0000 H   0  0  0  0  0  0  0  0  0  0  0  0
    4.6745   -1.1095    0.0000 H   0  0  0  0  0  0  0  0  0  0  0  0
    3.2075   -1.4929    0.0000 H   0  0  0  0  0  0  0  0  0  0  0  0
    2.8004   -2.1795    0.0000 H   0  0  0  0  0  0  0  0  0  0  0  0
    3.4025   -3.7831    0.0000 H   0  0  0  0  0  0  0  0  0  0  0  0
   10.1848    0.2344    0.0000 H   0  0  0  0  0  0  0  0  0  0  0  0
   10.7780    0.7667    0.0000 H   0  0  0  0  0  0  0  0  0  0  0  0
    8.9793    1.8062    0.0000 H   0  0  0  0  0  0  0  0  0  0  0  0
    8.1038    1.8536    0.0000 H   0  0  0  0  0  0  0  0  0  0  0  0
    8.0564    0.9781    0.0000 H   0  0  0  0  0  0  0  0  0  0  0  0
   10.4543    2.4242    0.0000 H   0  0  0  0  0  0  0  0  0  0  0  0
    9.8611    1.8919    0.0000 H   0  0  0  0  0  0  0  0  0  0  0  0
    2.0000   -3.3477    0.0000 H   0  0  0  0  0  0  0  0  0  0  0  0
   12.0601    2.1386    0.0000 H   0  0  0  0  0  0  0  0  0  0  0  0
   11.9567    3.5506    0.0000 H   0  0  0  0  0  0  0  0  0  0  0  0
   11.6598    0.8524    0.0000 H   0  0  0  0  0  0  0  0  0  0  0  0
   12.5353    0.8050    0.0000 H   0  0  0  0  0  0  0  0  0  0  0  0
   12.5827    1.6805    0.0000 H   0  0  0  0  0  0  0  0  0  0  0  0
   12.8704    2.5608    0.0000 H   0  0  0  0  0  0  0  0  0  0  0  0
   13.3492    3.2954    0.0000 H   0  0  0  0  0  0  0  0  0  0  0  0
   12.6147    3.7742    0.0000 H   0  0  0  0  0  0  0  0  0  0  0  0
   11.5577    4.1197    0.0000 H   0  0  0  0  0  0  0  0  0  0  0  0
   10.6821    4.1671    0.0000 H   0  0  0  0  0  0  0  0  0  0  0  0
   10.6347    3.2915    0.0000 H   0  0  0  0  0  0  0  0  0  0  0  0
 21  1  1  1  0  0  0
  1 68  1  0  0  0  0
  2  3  1  0  0  0  0
  2  7  1  0  0  0  0
  2  8  1  0  0  0  0
  2 16  1  1  0  0  0
  3  4  1  0  0  0  0
  3 11  1  0  0  0  0
  3 30  1  6  0  0  0
  4  5  1  0  0  0  0
  4 12  1  0  0  0  0
  4 31  1  1  0  0  0
  5  6  1  0  0  0  0
  5 10  1  0  0  0  0
  5 32  1  6  0  0  0
  6  9  1  0  0  0  0
  6 15  1  0  0  0  0
  6 19  1  1  0  0  0
  7 13  1  0  0  0  0
  7 17  1  0  0  0  0
  7 33  1  6  0  0  0
  8 10  1  0  0  0  0
  8 34  1  0  0  0  0
  8 35  1  0  0  0  0
  9 14  1  0  0  0  0
  9 18  1  0  0  0  0
  9 36  1  6  0  0  0
 10 37  1  0  0  0  0
 10 38  1  0  0  0  0
 11 13  1  0  0  0  0
 11 39  1  0  0  0  0
 11 40  1  0  0  0  0
 12 14  1  0  0  0  0
 12 41  1  0  0  0  0
 12 42  1  0  0  0  0
 13 43  1  0  0  0  0
 13 44  1  0  0  0  0
 14 45  1  0  0  0  0
 14 46  1  0  0  0  0
 15 20  1  0  0  0  0
 15 47  1  0  0  0  0
 15 48  1  0  0  0  0
 16 49  1  0  0  0  0
 16 50  1  0  0  0  0
 16 51  1  0  0  0  0
 17 22  1  0  0  0  0
 17 23  1  6  0  0  0
 17 52  1  0  0  0  0
 18 21  1  0  0  0  0
 18 53  1  0  0  0  0
 18 54  1  0  0  0  0
 19 55  1  0  0  0  0
 19 56  1  0  0  0  0
 19 57  1  0  0  0  0
 20 21  1  0  0  0  0
 20 58  1  0  0  0  0
 20 59  1  0  0  0  0
 21 60  1  0  0  0  0
 22 24  1  0  0  0  0
 22 61  1  0  0  0  0
 22 62  1  0  0  0  0
 23 63  1  0  0  0  0
 23 64  1  0  0  0  0
 23 65  1  0  0  0  0
 24 25  1  0  0  0  0
 24 66  1  0  0  0  0
 24 67  1  0  0  0  0
 25 26  1  0  0  0  0
 25 27  1  6  0  0  0
 25 69  1  0  0  0  0
 26 28  1  0  0  0  0
 26 29  1  0  0  0  0
 26 70  1  0  0  0  0
 27 71  1  0  0  0  0
 27 72  1  0  0  0  0
 27 73  1  0  0  0  0
 28 74  1  0  0  0  0
 28 75  1  0  0  0  0
 28 76  1  0  0  0  0
 29 77  1  0  0  0  0
 29 78  1  0  0  0  0
 29 79  1  0  0  0  0
M  END
> <PUBCHEM_COMPOUND_CID>
119394

> <PUBCHEM_COMPOUND_CANONICALIZED>
1

> <PUBCHEM_CACTVS_COMPLEXITY>
569

> <PUBCHEM_CACTVS_HBOND_ACCEPTOR>
1

> <PUBCHEM_CACTVS_HBOND_DONOR>
1

> <PUBCHEM_CACTVS_ROTATABLE_BOND>
5

> <PUBCHEM_CACTVS_SUBSKEYS>
AAADcfB4IAAAAAAAAAAAAAAAAAAAAYAAAAAwYMAAAAAAAGDAAAAAGgAACAAADxSggAICAAAAAgAAAAAAAAAAAAAAAAAAAAAAAAAAEAIAAAAAQAAEAAAAAAGAwPAPgAAAAAAAAADAAAYAACAAAQAACAAAAA==

> <PUBCHEM_IUPAC_OPENEYE_NAME>
(3S,5S,8R,9S,10S,13R,14S,17R)-10,13-dimethyl-17-[(1R,4R)-1,4,5-trimethylhexyl]-2,3,4,5,6,7,8,9,11,12,14,15,16,17-tetradecahydro-1H-cyclopenta[a]phenanthren-3-ol

> <PUBCHEM_IUPAC_CAS_NAME>
(3S,5S,8R,9S,10S,13R,14S,17R)-17-[(2R,5R)-5,6-dimethylheptan-2-yl]-10,13-dimethyl-2,3,4,5,6,7,8,9,11,12,14,15,16,17-tetradecahydro-1H-cyclopenta[a]phenanthren-3-ol

> <PUBCHEM_IUPAC_NAME_MARKUP>
(3<I>S</I>,5<I>S</I>,8<I>R</I>,9<I>S</I>,10<I>S</I>,13<I>R</I>,14<I>S</I>,17<I>R</I>)-17-[(2<I>R</I>,5<I>R</I>)-5,6-dimethylheptan-2-yl]-10,13-dimethyl-2,3,4,5,6,7,8,9,11,12,14,15,16,17-tetradecahydro-1<I>H</I>-cyclopenta[a]phenanthren-3-ol

> <PUBCHEM_IUPAC_NAME>
(3S,5S,8R,9S,10S,13R,14S,17R)-17-[(2R,5R)-5,6-dimethylheptan-2-yl]-10,13-dimethyl-2,3,4,5,6,7,8,9,11,12,14,15,16,17-tetradecahydro-1H-cyclopenta[a]phenanthren-3-ol

> <PUBCHEM_IUPAC_SYSTEMATIC_NAME>
(3S,5S,8R,9S,10S,13R,14S,17R)-17-[(2R,5R)-5,6-dimethylheptan-2-yl]-10,13-dimethyl-2,3,4,5,6,7,8,9,11,12,14,15,16,17-tetradecahydro-1H-cyclopenta[a]phenanthren-3-ol

> <PUBCHEM_IUPAC_TRADITIONAL_NAME>
(3S,5S,8R,9S,10S,13R,14S,17R)-10,13-dimethyl-17-[(1R,4R)-1,4,5-trimethylhexyl]-2,3,4,5,6,7,8,9,11,12,14,15,16,17-tetradecahydro-1H-cyclopenta[a]phenanthren-3-ol

> <PUBCHEM_IUPAC_INCHI>
InChI=1S/C28H50O/c1-18(2)19(3)7-8-20(4)24-11-12-25-23-10-9-21-17-22(29)13-15-27(21,5)26(23)14-16-28(24,25)6/h18-26,29H,7-17H2,1-6H3/t19-,20-,21+,22+,23+,24-,25+,26+,27+,28-/m1/s1

> <PUBCHEM_IUPAC_INCHIKEY>
ARYTXMNEANMLMU-ATEDBJNTSA-N

> <PUBCHEM_XLOGP3_AA>
9.6

> <PUBCHEM_EXACT_MASS>
402.386166

> <PUBCHEM_MOLECULAR_FORMULA>
C28H50O

> <PUBCHEM_MOLECULAR_WEIGHT>
402.7

> <PUBCHEM_OPENEYE_CAN_SMILES>
CC(C)C(C)CCC(C)C1CCC2C1(CCC3C2CCC4C3(CCC(C4)O)C)C

> <PUBCHEM_OPENEYE_ISO_SMILES>
C[C@H](CC[C@@H](C)C(C)C)[C@H]1CC[C@@H]2[C@@]1(CC[C@H]3[C@H]2CC[C@@H]4[C@@]3(CC[C@@H](C4)O)C)C

> <PUBCHEM_CACTVS_TPSA>
20.2

> <PUBCHEM_MONOISOTOPIC_WEIGHT>
402.386166

> <PUBCHEM_TOTAL_CHARGE>
0

> <PUBCHEM_HEAVY_ATOM_COUNT>
29

> <PUBCHEM_ATOM_DEF_STEREO_COUNT>
10

> <PUBCHEM_ATOM_UDEF_STEREO_COUNT>
0

> <PUBCHEM_BOND_DEF_STEREO_COUNT>
0

> <PUBCHEM_BOND_UDEF_STEREO_COUNT>
0

> <PUBCHEM_ISOTOPIC_ATOM_COUNT>
0

> <PUBCHEM_COMPONENT_COUNT>
1

> <PUBCHEM_CACTVS_TAUTO_COUNT>
-1

> <PUBCHEM_COORDINATE_TYPE>
1
5
255

> <PUBCHEM_BONDANNOTATIONS>
21  1  5
17  23  6
2  16  5
25  27  6
3  30  6
4  31  5
5  32  6
6  19  5
7  33  6
9  36  6

$$$$
95924
  -OEChem-04052116402D

 27 26  0     0  0  0  0  0  0999 V2000
    3.7320   -0.3660    0.0000 P   0  0  0  0  0  0  0  0  0  0  0  0
    6.3301    0.1340    0.0000 O   0  0  0  0  0  0  0  0  0  0  0  0
    2.8660   -0.8660    0.0000 O   0  0  0  0  0  0  0  0  0  0  0  0
    3.2320    0.5000    0.0000 O   0  0  0  0  0  0  0  0  0  0  0  0
    4.2320   -1.2320    0.0000 O   0  0  0  0  0  0  0  0  0  0  0  0
    5.4641   -1.3660    0.0000 O   0  0  0  0  0  0  0  0  0  0  0  0
    4.5981    0.1340    0.0000 N   0  0  0  0  0  0  0  0  0  0  0  0
    7.1962   -0.3660    0.0000 C   0  0  0  0  0  0  0  0  0  0  0  0
    8.0622    0.1340    0.0000 C   0  0  0  0  0  0  0  0  0  0  0  0
    7.1962   -1.3660    0.0000 C   0  0  0  0  0  0  0  0  0  0  0  0
    5.4641   -0.3660    0.0000 C   0  0  0  0  0  0  0  0  0  0  0  0
    2.0000   -0.3660    0.0000 C   0  0  0  0  0  0  0  0  0  0  0  0
    3.7320    1.3660    0.0000 C   0  0  0  0  0  0  0  0  0  0  0  0
    6.6592   -0.6760    0.0000 H   0  0  0  0  0  0  0  0  0  0  0  0
    8.3722   -0.4030    0.0000 H   0  0  0  0  0  0  0  0  0  0  0  0
    8.5991    0.4440    0.0000 H   0  0  0  0  0  0  0  0  0  0  0  0
    7.7522    0.6709    0.0000 H   0  0  0  0  0  0  0  0  0  0  0  0
    6.5762   -1.3660    0.0000 H   0  0  0  0  0  0  0  0  0  0  0  0
    7.1962   -1.9860    0.0000 H   0  0  0  0  0  0  0  0  0  0  0  0
    7.8162   -1.3660    0.0000 H   0  0  0  0  0  0  0  0  0  0  0  0
    4.5981    0.7540    0.0000 H   0  0  0  0  0  0  0  0  0  0  0  0
    2.3100    0.1709    0.0000 H   0  0  0  0  0  0  0  0  0  0  0  0
    1.4631   -0.0560    0.0000 H   0  0  0  0  0  0  0  0  0  0  0  0
    1.6900   -0.9030    0.0000 H   0  0  0  0  0  0  0  0  0  0  0  0
    4.2690    1.0560    0.0000 H   0  0  0  0  0  0  0  0  0  0  0  0
    4.0420    1.9030    0.0000 H   0  0  0  0  0  0  0  0  0  0  0  0
    3.1951    1.6760    0.0000 H   0  0  0  0  0  0  0  0  0  0  0  0
  1  3  1  0  0  0  0
  1  4  1  0  0  0  0
  1  5  2  0  0  0  0
  1  7  1  0  0  0  0
  2  8  1  0  0  0  0
  2 11  1  0  0  0  0
  3 12  1  0  0  0  0
  4 13  1  0  0  0  0
  6 11  2  0  0  0  0
  7 11  1  0  0  0  0
  7 21  1  0  0  0  0
  8  9  1  0  0  0  0
  8 10  1  0  0  0  0
  8 14  1  0  0  0  0
  9 15  1  0  0  0  0
  9 16  1  0  0  0  0
  9 17  1  0  0  0  0
 10 18  1  0  0  0  0
 10 19  1  0  0  0  0
 10 20  1  0  0  0  0
 12 22  1  0  0  0  0
 12 23  1  0  0  0  0
 12 24  1  0  0  0  0
 13 25  1  0  0  0  0
 13 26  1  0  0  0  0
 13 27  1  0  0  0  0
M  END
> <PUBCHEM_COMPOUND_CID>
95924

> <PUBCHEM_COMPOUND_CANONICALIZED>
1

> <PUBCHEM_CACTVS_COMPLEXITY>
209

> <PUBCHEM_CACTVS_HBOND_ACCEPTOR>
5

> <PUBCHEM_CACTVS_HBOND_DONOR>
1

> <PUBCHEM_CACTVS_ROTATABLE_BOND>
5

> <PUBCHEM_CACTVS_SUBSKEYS>
AAADccBiOAIAAAAAAAAAAAAAAAAAAAAAAAAAAAAAAAAAAAAAAAAAHgAQgCAACBSggAICCABABRAIQAAAGIAAAAAAAAAAAAAAAAEAAAAAAAAIAAAAAAAAAAAAAAAAAAAAAAAAAAAAAAAAAAAAAAAAAAAAAA==

> <PUBCHEM_IUPAC_OPENEYE_NAME>
isopropyl N-dimethoxyphosphorylcarbamate

> <PUBCHEM_IUPAC_CAS_NAME>
N-dimethoxyphosphorylcarbamic acid propan-2-yl ester

> <PUBCHEM_IUPAC_NAME_MARKUP>
propan-2-yl <I>N</I>-dimethoxyphosphorylcarbamate

> <PUBCHEM_IUPAC_NAME>
propan-2-yl N-dimethoxyphosphorylcarbamate

> <PUBCHEM_IUPAC_SYSTEMATIC_NAME>
propan-2-yl N-dimethoxyphosphorylcarbamate

> <PUBCHEM_IUPAC_TRADITIONAL_NAME>
N-dimethoxyphosphorylcarbamic acid isopropyl ester

> <PUBCHEM_IUPAC_INCHI>
InChI=1S/C6H14NO5P/c1-5(2)12-6(8)7-13(9,10-3)11-4/h5H,1-4H3,(H,7,8,9)

> <PUBCHEM_IUPAC_INCHIKEY>
XXRYFVCIMARHRS-UHFFFAOYSA-N

> <PUBCHEM_XLOGP3_AA>
0.2

> <PUBCHEM_EXACT_MASS>
211.06096

> <PUBCHEM_MOLECULAR_FORMULA>
C6H14NO5P

> <PUBCHEM_MOLECULAR_WEIGHT>
211.15

> <PUBCHEM_OPENEYE_CAN_SMILES>
CC(C)OC(=O)NP(=O)(OC)OC

> <PUBCHEM_OPENEYE_ISO_SMILES>
CC(C)OC(=O)NP(=O)(OC)OC

> <PUBCHEM_CACTVS_TPSA>
73.9

> <PUBCHEM_MONOISOTOPIC_WEIGHT>
211.06096

> <PUBCHEM_TOTAL_CHARGE>
0

> <PUBCHEM_HEAVY_ATOM_COUNT>
13

> <PUBCHEM_ATOM_DEF_STEREO_COUNT>
0

> <PUBCHEM_ATOM_UDEF_STEREO_COUNT>
0

> <PUBCHEM_BOND_DEF_STEREO_COUNT>
0

> <PUBCHEM_BOND_UDEF_STEREO_COUNT>
0

> <PUBCHEM_ISOTOPIC_ATOM_COUNT>
0

> <PUBCHEM_COMPONENT_COUNT>
1

> <PUBCHEM_CACTVS_TAUTO_COUNT>
-1

> <PUBCHEM_COORDINATE_TYPE>
1
5
255

$$$$
92769
  -OEChem-04052116402D

 38 40  0     1  0  0  0  0  0999 V2000
    5.1350    0.0158    0.0000 O   0  0  0  0  0  0  0  0  0  0  0  0
    6.8671    0.0158    0.0000 O   0  0  0  0  0  0  0  0  0  0  0  0
    5.1350   -2.9842    0.0000 O   0  0  0  0  0  0  0  0  0  0  0  0
    3.4030   -1.9842    0.0000 O   0  0  0  0  0  0  0  0  0  0  0  0
    6.8671   -1.9842    0.0000 O   0  0  0  0  0  0  0  0  0  0  0  0
    2.5369   -0.4842    0.0000 O   0  0  0  0  0  0  0  0  0  0  0  0
    6.3671    2.5456    0.0000 N   0  0  0  0  0  0  0  0  0  0  0  0
    5.1350   -1.9842    0.0000 C   0  0  1  0  0  0  0  0  0  0  0  0
    4.2690   -1.4842    0.0000 C   0  0  1  0  0  0  0  0  0  0  0  0
    6.0010   -1.4842    0.0000 C   0  0  2  0  0  0  0  0  0  0  0  0
    4.2690   -0.4842    0.0000 C   0  0  1  0  0  0  0  0  0  0  0  0
    6.0010   -0.4842    0.0000 C   0  0  3  0  0  0  0  0  0  0  0  0
    3.4030    0.0158    0.0000 C   0  0  0  0  0  0  0  0  0  0  0  0
    6.8671    1.0158    0.0000 C   0  0  0  0  0  0  0  0  0  0  0  0
    7.6718    1.5994    0.0000 C   0  0  0  0  0  0  0  0  0  0  0  0
    7.3611    2.5499    0.0000 C   0  0  0  0  0  0  0  0  0  0  0  0
    6.0623    1.5994    0.0000 C   0  0  0  0  0  0  0  0  0  0  0  0
    8.6503    1.3932    0.0000 C   0  0  0  0  0  0  0  0  0  0  0  0
    8.0290    3.2942    0.0000 C   0  0  0  0  0  0  0  0  0  0  0  0
    9.3181    2.1375    0.0000 C   0  0  0  0  0  0  0  0  0  0  0  0
    9.0075    3.0880    0.0000 C   0  0  0  0  0  0  0  0  0  0  0  0
    4.5981   -2.2942    0.0000 H   0  0  0  0  0  0  0  0  0  0  0  0
    4.2690   -2.1042    0.0000 H   0  0  0  0  0  0  0  0  0  0  0  0
    6.0010   -2.1042    0.0000 H   0  0  0  0  0  0  0  0  0  0  0  0
    4.2690    0.1358    0.0000 H   0  0  0  0  0  0  0  0  0  0  0  0
    6.0010    0.1358    0.0000 H   0  0  0  0  0  0  0  0  0  0  0  0
    3.8015    0.4907    0.0000 H   0  0  0  0  0  0  0  0  0  0  0  0
    3.0044    0.4907    0.0000 H   0  0  0  0  0  0  0  0  0  0  0  0
    4.5981   -3.2942    0.0000 H   0  0  0  0  0  0  0  0  0  0  0  0
    3.4030   -2.6042    0.0000 H   0  0  0  0  0  0  0  0  0  0  0  0
    6.8671   -2.6042    0.0000 H   0  0  0  0  0  0  0  0  0  0  0  0
    5.4730    1.4068    0.0000 H   0  0  0  0  0  0  0  0  0  0  0  0
    2.0000   -0.1742    0.0000 H   0  0  0  0  0  0  0  0  0  0  0  0
    6.0009    3.0459    0.0000 H   0  0  0  0  0  0  0  0  0  0  0  0
    8.8429    0.8039    0.0000 H   0  0  0  0  0  0  0  0  0  0  0  0
    7.8364    3.8835    0.0000 H   0  0  0  0  0  0  0  0  0  0  0  0
    9.9248    2.0096    0.0000 H   0  0  0  0  0  0  0  0  0  0  0  0
    9.4216    3.5495    0.0000 H   0  0  0  0  0  0  0  0  0  0  0  0
  1 11  1  0  0  0  0
  1 12  1  0  0  0  0
  2 12  1  0  0  0  0
  2 14  1  0  0  0  0
  8  3  1  1  0  0  0
  3 29  1  0  0  0  0
  9  4  1  6  0  0  0
  4 30  1  0  0  0  0
 10  5  1  6  0  0  0
  5 31  1  0  0  0  0
  6 13  1  0  0  0  0
  6 33  1  0  0  0  0
  7 16  1  0  0  0  0
  7 17  1  0  0  0  0
  7 34  1  0  0  0  0
  8  9  1  0  0  0  0
  8 10  1  0  0  0  0
  8 22  1  0  0  0  0
  9 11  1  0  0  0  0
  9 23  1  0  0  0  0
 10 12  1  0  0  0  0
 10 24  1  0  0  0  0
 11 13  1  1  0  0  0
 11 25  1  0  0  0  0
 12 26  1  0  0  0  0
 13 27  1  0  0  0  0
 13 28  1  0  0  0  0
 14 15  1  0  0  0  0
 14 17  2  0  0  0  0
 15 16  1  0  0  0  0
 15 18  2  0  0  0  0
 16 19  2  0  0  0  0
 17 32  1  0  0  0  0
 18 20  1  0  0  0  0
 18 35  1  0  0  0  0
 19 21  1  0  0  0  0
 19 36  1  0  0  0  0
 20 21  2  0  0  0  0
 20 37  1  0  0  0  0
 21 38  1  0  0  0  0
M  END
> <PUBCHEM_COMPOUND_CID>
92769

> <PUBCHEM_COMPOUND_CANONICALIZED>
1

> <PUBCHEM_CACTVS_COMPLEXITY>
356

> <PUBCHEM_CACTVS_HBOND_ACCEPTOR>
6

> <PUBCHEM_CACTVS_HBOND_DONOR>
5

> <PUBCHEM_CACTVS_ROTATABLE_BOND>
3

> <PUBCHEM_CACTVS_SUBSKEYS>
AAADceByOAAAAAAAAAAAAAAAAAAAAWAAAAA0QAAAAAAAAFgB8AAAHgAQCAAADBzxngc8zvLJlgCgAzRnRASCiCAxYiAI2aA/bJgfNuLEsZuneCjn0Bnf6AfQ4KwOAAAAAAACAAAAAAAAAAQAAAAAAAAAAA==

> <PUBCHEM_IUPAC_OPENEYE_NAME>
(2R,3S,4S,5R)-2-(hydroxymethyl)-6-(1H-indol-3-yloxy)tetrahydropyran-3,4,5-triol

> <PUBCHEM_IUPAC_CAS_NAME>
(2R,3S,4S,5R)-2-(hydroxymethyl)-6-(1H-indol-3-yloxy)oxane-3,4,5-triol

> <PUBCHEM_IUPAC_NAME_MARKUP>
(2<I>R</I>,3<I>S</I>,4<I>S</I>,5<I>R</I>)-2-(hydroxymethyl)-6-(1<I>H</I>-indol-3-yloxy)oxane-3,4,5-triol

> <PUBCHEM_IUPAC_NAME>
(2R,3S,4S,5R)-2-(hydroxymethyl)-6-(1H-indol-3-yloxy)oxane-3,4,5-triol

> <PUBCHEM_IUPAC_SYSTEMATIC_NAME>
(2R,3S,4S,5R)-2-(hydroxymethyl)-6-(1H-indol-3-yloxy)oxane-3,4,5-triol

> <PUBCHEM_IUPAC_TRADITIONAL_NAME>
(3R,4S,5S,6R)-2-(1H-indol-3-yloxy)-6-methylol-tetrahydropyran-3,4,5-triol

> <PUBCHEM_IUPAC_INCHI>
InChI=1S/C14H17NO6/c16-6-10-11(17)12(18)13(19)14(21-10)20-9-5-15-8-4-2-1-3-7(8)9/h1-5,10-19H,6H2/t10-,11-,12+,13-,14?/m1/s1

> <PUBCHEM_IUPAC_INCHIKEY>
XVARCVCWNFACQC-RQICVUQASA-N

> <PUBCHEM_XLOGP3_AA>
-0.1

> <PUBCHEM_EXACT_MASS>
295.105587

> <PUBCHEM_MOLECULAR_FORMULA>
C14H17NO6

> <PUBCHEM_MOLECULAR_WEIGHT>
295.29

> <PUBCHEM_OPENEYE_CAN_SMILES>
C1=CC=C2C(=C1)C(=CN2)OC3C(C(C(C(O3)CO)O)O)O

> <PUBCHEM_OPENEYE_ISO_SMILES>
C1=CC=C2C(=C1)C(=CN2)OC3[C@@H]([C@H]([C@@H]([C@H](O3)CO)O)O)O

> <PUBCHEM_CACTVS_TPSA>
115

> <PUBCHEM_MONOISOTOPIC_WEIGHT>
295.105587

> <PUBCHEM_TOTAL_CHARGE>
0

> <PUBCHEM_HEAVY_ATOM_COUNT>
21

> <PUBCHEM_ATOM_DEF_STEREO_COUNT>
4

> <PUBCHEM_ATOM_UDEF_STEREO_COUNT>
1

> <PUBCHEM_BOND_DEF_STEREO_COUNT>
0

> <PUBCHEM_BOND_UDEF_STEREO_COUNT>
0

> <PUBCHEM_ISOTOPIC_ATOM_COUNT>
0

> <PUBCHEM_COMPONENT_COUNT>
1

> <PUBCHEM_CACTVS_TAUTO_COUNT>
-1

> <PUBCHEM_COORDINATE_TYPE>
1
5
255

> <PUBCHEM_BONDANNOTATIONS>
11  13  5
14  15  8
14  17  8
15  16  8
15  18  8
16  19  8
18  20  8
19  21  8
12  2  3
20  21  8
8  3  5
9  4  6
10  5  6
7  16  8
7  17  8

$$$$
92180
  -OEChem-04052116402D

 28 29  0     0  0  0  0  0  0999 V2000
    4.5981    0.0000    0.0000 N   0  0  0  0  0  0  0  0  0  0  0  0
    6.4103   -1.1953    0.0000 N   0  0  0  0  0  0  0  0  0  0  0  0
    3.7320   -1.5000    0.0000 N   0  0  0  0  0  0  0  0  0  0  0  0
    6.4103   -2.8047    0.0000 N   0  0  0  0  0  0  0  0  0  0  0  0
    4.5981   -3.0000    0.0000 N   0  0  0  0  0  0  0  0  0  0  0  0
    5.4641   -1.5000    0.0000 C   0  0  0  0  0  0  0  0  0  0  0  0
    4.5981   -1.0000    0.0000 C   0  0  0  0  0  0  0  0  0  0  0  0
    3.7320    0.5000    0.0000 C   0  0  0  0  0  0  0  0  0  0  0  0
    5.4641   -2.5000    0.0000 C   0  0  0  0  0  0  0  0  0  0  0  0
    3.7320    1.5000    0.0000 C   0  0  0  0  0  0  0  0  0  0  0  0
    2.8660    2.0000    0.0000 C   0  0  0  0  0  0  0  0  0  0  0  0
    6.9939   -2.0000    0.0000 C   0  0  0  0  0  0  0  0  0  0  0  0
    2.8660    3.0000    0.0000 C   0  0  0  0  0  0  0  0  0  0  0  0
    2.0000    1.5000    0.0000 C   0  0  0  0  0  0  0  0  0  0  0  0
    3.7320   -2.5000    0.0000 C   0  0  0  0  0  0  0  0  0  0  0  0
    3.1215    0.6077    0.0000 H   0  0  0  0  0  0  0  0  0  0  0  0
    3.5200   -0.0826    0.0000 H   0  0  0  0  0  0  0  0  0  0  0  0
    5.1350    0.3100    0.0000 H   0  0  0  0  0  0  0  0  0  0  0  0
    4.2690    1.8100    0.0000 H   0  0  0  0  0  0  0  0  0  0  0  0
    6.6029   -0.6059    0.0000 H   0  0  0  0  0  0  0  0  0  0  0  0
    7.6139   -2.0000    0.0000 H   0  0  0  0  0  0  0  0  0  0  0  0
    3.4860    3.0000    0.0000 H   0  0  0  0  0  0  0  0  0  0  0  0
    2.8660    3.6200    0.0000 H   0  0  0  0  0  0  0  0  0  0  0  0
    2.2460    3.0000    0.0000 H   0  0  0  0  0  0  0  0  0  0  0  0
    1.6900    2.0369    0.0000 H   0  0  0  0  0  0  0  0  0  0  0  0
    1.4631    1.1900    0.0000 H   0  0  0  0  0  0  0  0  0  0  0  0
    2.3100    0.9631    0.0000 H   0  0  0  0  0  0  0  0  0  0  0  0
    3.1951   -2.8100    0.0000 H   0  0  0  0  0  0  0  0  0  0  0  0
  1  7  1  0  0  0  0
  1  8  1  0  0  0  0
  1 18  1  0  0  0  0
  2  6  1  0  0  0  0
  2 12  1  0  0  0  0
  2 20  1  0  0  0  0
  3  7  2  0  0  0  0
  3 15  1  0  0  0  0
  4  9  1  0  0  0  0
  4 12  2  0  0  0  0
  5  9  1  0  0  0  0
  5 15  2  0  0  0  0
  6  7  1  0  0  0  0
  6  9  2  0  0  0  0
  8 10  1  0  0  0  0
  8 16  1  0  0  0  0
  8 17  1  0  0  0  0
 10 11  2  0  0  0  0
 10 19  1  0  0  0  0
 11 13  1  0  0  0  0
 11 14  1  0  0  0  0
 12 21  1  0  0  0  0
 13 22  1  0  0  0  0
 13 23  1  0  0  0  0
 13 24  1  0  0  0  0
 14 25  1  0  0  0  0
 14 26  1  0  0  0  0
 14 27  1  0  0  0  0
 15 28  1  0  0  0  0
M  END
> <PUBCHEM_COMPOUND_CID>
92180

> <PUBCHEM_COMPOUND_CANONICALIZED>
1

> <PUBCHEM_CACTVS_COMPLEXITY>
236

> <PUBCHEM_CACTVS_HBOND_ACCEPTOR>
4

> <PUBCHEM_CACTVS_HBOND_DONOR>
2

> <PUBCHEM_CACTVS_ROTATABLE_BOND>
3

> <PUBCHEM_CACTVS_SUBSKEYS>
AAADccBzgAAAAAAAAAAAAAAAAAAAAWAAAAAsAAAAAAAAAFgB+AAAHAAQAAAADAjBFwQH8L7JkACgAyZjZACAgC2REKABWaAoVBCASABASUAUBAgIEALAACAAAAAAAAAAAAAAAAAAAAAAAAAAAAAAAAAAAA==

> <PUBCHEM_IUPAC_OPENEYE_NAME>
N-(3-methylbut-2-enyl)-7H-purin-6-amine

> <PUBCHEM_IUPAC_CAS_NAME>
N-(3-methylbut-2-enyl)-7H-purin-6-amine

> <PUBCHEM_IUPAC_NAME_MARKUP>
<I>N</I>-(3-methylbut-2-enyl)-7<I>H</I>-purin-6-amine

> <PUBCHEM_IUPAC_NAME>
N-(3-methylbut-2-enyl)-7H-purin-6-amine

> <PUBCHEM_IUPAC_SYSTEMATIC_NAME>
N-(3-methylbut-2-enyl)-7H-purin-6-amine

> <PUBCHEM_IUPAC_TRADITIONAL_NAME>
3-methylbut-2-enyl(7H-purin-6-yl)amine

> <PUBCHEM_IUPAC_INCHI>
InChI=1S/C10H13N5/c1-7(2)3-4-11-9-8-10(13-5-12-8)15-6-14-9/h3,5-6H,4H2,1-2H3,(H2,11,12,13,14,15)

> <PUBCHEM_IUPAC_INCHIKEY>
HYVABZIGRDEKCD-UHFFFAOYSA-N

> <PUBCHEM_XLOGP3>
2.1

> <PUBCHEM_EXACT_MASS>
203.117095

> <PUBCHEM_MOLECULAR_FORMULA>
C10H13N5

> <PUBCHEM_MOLECULAR_WEIGHT>
203.24

> <PUBCHEM_OPENEYE_CAN_SMILES>
CC(=CCNC1=NC=NC2=C1NC=N2)C

> <PUBCHEM_OPENEYE_ISO_SMILES>
CC(=CCNC1=NC=NC2=C1NC=N2)C

> <PUBCHEM_CACTVS_TPSA>
66.5

> <PUBCHEM_MONOISOTOPIC_WEIGHT>
203.117095

> <PUBCHEM_TOTAL_CHARGE>
0

> <PUBCHEM_HEAVY_ATOM_COUNT>
15

> <PUBCHEM_ATOM_DEF_STEREO_COUNT>
0

> <PUBCHEM_ATOM_UDEF_STEREO_COUNT>
0

> <PUBCHEM_BOND_DEF_STEREO_COUNT>
0

> <PUBCHEM_BOND_UDEF_STEREO_COUNT>
0

> <PUBCHEM_ISOTOPIC_ATOM_COUNT>
0

> <PUBCHEM_COMPONENT_COUNT>
1

> <PUBCHEM_CACTVS_TAUTO_COUNT>
-1

> <PUBCHEM_COORDINATE_TYPE>
1
5
255

> <PUBCHEM_BONDANNOTATIONS>
2  12  8
2  6  8
3  15  8
3  7  8
4  12  8
4  9  8
5  15  8
5  9  8
6  7  8
6  9  8

$$$$
79025
  -OEChem-04052116402D

 24 24  0     1  0  0  0  0  0999 V2000
    4.2690    1.0000    0.0000 O   0  0  0  0  0  0  0  0  0  0  0  0
    2.5369   -1.0000    0.0000 O   0  0  0  0  0  0  0  0  0  0  0  0
    4.2690   -2.0000    0.0000 O   0  0  0  0  0  0  0  0  0  0  0  0
    6.0010   -1.0000    0.0000 O   0  0  0  0  0  0  0  0  0  0  0  0
    6.0010    1.0000    0.0000 O   0  0  0  0  0  0  0  0  0  0  0  0
    2.5369    2.0000    0.0000 O   0  0  0  0  0  0  0  0  0  0  0  0
    3.4030   -0.5000    0.0000 C   0  0  1  0  0  0  0  0  0  0  0  0
    4.2690   -1.0000    0.0000 C   0  0  1  0  0  0  0  0  0  0  0  0
    3.4030    0.5000    0.0000 C   0  0  1  0  0  0  0  0  0  0  0  0
    5.1350   -0.5000    0.0000 C   0  0  2  0  0  0  0  0  0  0  0  0
    5.1350    0.5000    0.0000 C   0  0  2  0  0  0  0  0  0  0  0  0
    2.5369    1.0000    0.0000 C   0  0  0  0  0  0  0  0  0  0  0  0
    3.4030   -1.1200    0.0000 H   0  0  0  0  0  0  0  0  0  0  0  0
    3.7320   -1.3100    0.0000 H   0  0  0  0  0  0  0  0  0  0  0  0
    3.4030    1.1200    0.0000 H   0  0  0  0  0  0  0  0  0  0  0  0
    5.1350   -1.1200    0.0000 H   0  0  0  0  0  0  0  0  0  0  0  0
    5.1350    1.1200    0.0000 H   0  0  0  0  0  0  0  0  0  0  0  0
    1.9264    1.1077    0.0000 H   0  0  0  0  0  0  0  0  0  0  0  0
    2.3249    0.4174    0.0000 H   0  0  0  0  0  0  0  0  0  0  0  0
    2.0000   -0.6900    0.0000 H   0  0  0  0  0  0  0  0  0  0  0  0
    4.8059   -2.3100    0.0000 H   0  0  0  0  0  0  0  0  0  0  0  0
    6.5380   -0.6900    0.0000 H   0  0  0  0  0  0  0  0  0  0  0  0
    6.0010    1.6200    0.0000 H   0  0  0  0  0  0  0  0  0  0  0  0
    2.0000    2.3100    0.0000 H   0  0  0  0  0  0  0  0  0  0  0  0
  1  9  1  0  0  0  0
  1 11  1  0  0  0  0
  7  2  1  6  0  0  0
  2 20  1  0  0  0  0
  8  3  1  1  0  0  0
  3 21  1  0  0  0  0
 10  4  1  6  0  0  0
  4 22  1  0  0  0  0
 11  5  1  6  0  0  0
  5 23  1  0  0  0  0
  6 12  1  0  0  0  0
  6 24  1  0  0  0  0
  7  8  1  0  0  0  0
  7  9  1  0  0  0  0
  7 13  1  0  0  0  0
  8 10  1  0  0  0  0
  8 14  1  0  0  0  0
  9 12  1  1  0  0  0
  9 15  1  0  0  0  0
 10 11  1  0  0  0  0
 10 16  1  0  0  0  0
 11 17  1  0  0  0  0
 12 18  1  0  0  0  0
 12 19  1  0  0  0  0
M  END
> <PUBCHEM_COMPOUND_CID>
79025

> <PUBCHEM_COMPOUND_CANONICALIZED>
1

> <PUBCHEM_CACTVS_COMPLEXITY>
151

> <PUBCHEM_CACTVS_HBOND_ACCEPTOR>
6

> <PUBCHEM_CACTVS_HBOND_DONOR>
5

> <PUBCHEM_CACTVS_ROTATABLE_BOND>
1

> <PUBCHEM_CACTVS_SUBSKEYS>
AAADccBgOAAAAAAAAAAAAAAAAAAAAAAAAAAkAAAAAAAAAAAAAAAAGgAACAAACBSwgAMACAAABgAAAAAAAAAAAAAAAAAAAAAAAAAREAIAAAACQAAFAAAHAAHAYAQAAAAAAAAAAAAAAAAAAAAAAAAAAAAAAA==

> <PUBCHEM_IUPAC_OPENEYE_NAME>
(2S,3R,4S,5S,6R)-6-(hydroxymethyl)tetrahydropyran-2,3,4,5-tetrol

> <PUBCHEM_IUPAC_CAS_NAME>
(2S,3R,4S,5S,6R)-6-(hydroxymethyl)oxane-2,3,4,5-tetrol

> <PUBCHEM_IUPAC_NAME_MARKUP>
(2<I>S</I>,3<I>R</I>,4<I>S</I>,5<I>S</I>,6<I>R</I>)-6-(hydroxymethyl)oxane-2,3,4,5-tetrol

> <PUBCHEM_IUPAC_NAME>
(2S,3R,4S,5S,6R)-6-(hydroxymethyl)oxane-2,3,4,5-tetrol

> <PUBCHEM_IUPAC_SYSTEMATIC_NAME>
(2S,3R,4S,5S,6R)-6-(hydroxymethyl)oxane-2,3,4,5-tetrol

> <PUBCHEM_IUPAC_TRADITIONAL_NAME>
(2S,3R,4S,5S,6R)-6-methyloltetrahydropyran-2,3,4,5-tetrol

> <PUBCHEM_IUPAC_INCHI>
InChI=1S/C6H12O6/c7-1-2-3(8)4(9)5(10)6(11)12-2/h2-11H,1H2/t2-,3-,4+,5-,6+/m1/s1

> <PUBCHEM_IUPAC_INCHIKEY>
WQZGKKKJIJFFOK-DVKNGEFBSA-N

> <PUBCHEM_XLOGP3_AA>
-2.6

> <PUBCHEM_EXACT_MASS>
180.063388

> <PUBCHEM_MOLECULAR_FORMULA>
C6H12O6

> <PUBCHEM_MOLECULAR_WEIGHT>
180.16

> <PUBCHEM_OPENEYE_CAN_SMILES>
C(C1C(C(C(C(O1)O)O)O)O)O

> <PUBCHEM_OPENEYE_ISO_SMILES>
C([C@@H]1[C@H]([C@@H]([C@H]([C@H](O1)O)O)O)O)O

> <PUBCHEM_CACTVS_TPSA>
110

> <PUBCHEM_MONOISOTOPIC_WEIGHT>
180.063388

> <PUBCHEM_TOTAL_CHARGE>
0

> <PUBCHEM_HEAVY_ATOM_COUNT>
12

> <PUBCHEM_ATOM_DEF_STEREO_COUNT>
5

> <PUBCHEM_ATOM_UDEF_STEREO_COUNT>
0

> <PUBCHEM_BOND_DEF_STEREO_COUNT>
0

> <PUBCHEM_BOND_UDEF_STEREO_COUNT>
0

> <PUBCHEM_ISOTOPIC_ATOM_COUNT>
0

> <PUBCHEM_COMPONENT_COUNT>
1

> <PUBCHEM_CACTVS_TAUTO_COUNT>
-1

> <PUBCHEM_COORDINATE_TYPE>
1
5
255

> <PUBCHEM_BONDANNOTATIONS>
7  2  6
8  3  5
10  4  6
11  5  6
9  12  5

$$$$
72300
  -OEChem-04052116402D

 38 39  0     0  0  0  0  0  0999 V2000
    6.3301    0.5000    0.0000 O   0  0  0  0  0  0  0  0  0  0  0  0
    2.8660   -0.5000    0.0000 O   0  0  0  0  0  0  0  0  0  0  0  0
    4.5981    0.5000    0.0000 C   0  0  0  0  0  0  0  0  0  0  0  0
    4.5981   -0.5000    0.0000 C   0  0  0  0  0  0  0  0  0  0  0  0
    3.7320    2.0000    0.0000 C   0  0  0  0  0  0  0  0  0  0  0  0
    5.4641   -2.0000    0.0000 C   0  0  0  0  0  0  0  0  0  0  0  0
    3.7320    1.0000    0.0000 C   0  0  0  0  0  0  0  0  0  0  0  0
    5.4641   -1.0000    0.0000 C   0  0  0  0  0  0  0  0  0  0  0  0
    5.4641    1.0000    0.0000 C   0  0  0  0  0  0  0  0  0  0  0  0
    3.7320   -1.0000    0.0000 C   0  0  0  0  0  0  0  0  0  0  0  0
    2.8660    2.5000    0.0000 C   0  0  0  0  0  0  0  0  0  0  0  0
    6.3301   -2.5000    0.0000 C   0  0  0  0  0  0  0  0  0  0  0  0
    4.5981    2.5000    0.0000 C   0  0  0  0  0  0  0  0  0  0  0  0
    4.5981   -2.5000    0.0000 C   0  0  0  0  0  0  0  0  0  0  0  0
    5.4641    2.0000    0.0000 C   0  0  0  0  0  0  0  0  0  0  0  0
    3.7320   -2.0000    0.0000 C   0  0  0  0  0  0  0  0  0  0  0  0
    2.8660    3.5000    0.0000 C   0  0  0  0  0  0  0  0  0  0  0  0
    6.3301   -3.5000    0.0000 C   0  0  0  0  0  0  0  0  0  0  0  0
    2.0000    4.0000    0.0000 C   0  0  0  0  0  0  0  0  0  0  0  0
    7.1962   -4.0000    0.0000 C   0  0  0  0  0  0  0  0  0  0  0  0
    3.1951    0.6900    0.0000 H   0  0  0  0  0  0  0  0  0  0  0  0
    6.0010   -0.6900    0.0000 H   0  0  0  0  0  0  0  0  0  0  0  0
    2.2554    2.6077    0.0000 H   0  0  0  0  0  0  0  0  0  0  0  0
    2.6540    1.9174    0.0000 H   0  0  0  0  0  0  0  0  0  0  0  0
    6.9407   -2.6077    0.0000 H   0  0  0  0  0  0  0  0  0  0  0  0
    6.5422   -1.9174    0.0000 H   0  0  0  0  0  0  0  0  0  0  0  0
    4.5981    3.1200    0.0000 H   0  0  0  0  0  0  0  0  0  0  0  0
    4.5981   -3.1200    0.0000 H   0  0  0  0  0  0  0  0  0  0  0  0
    6.0010    2.3100    0.0000 H   0  0  0  0  0  0  0  0  0  0  0  0
    3.1951   -2.3100    0.0000 H   0  0  0  0  0  0  0  0  0  0  0  0
    3.4030    3.8100    0.0000 H   0  0  0  0  0  0  0  0  0  0  0  0
    5.7932   -3.8100    0.0000 H   0  0  0  0  0  0  0  0  0  0  0  0
    6.8671    0.8100    0.0000 H   0  0  0  0  0  0  0  0  0  0  0  0
    2.3291   -0.8100    0.0000 H   0  0  0  0  0  0  0  0  0  0  0  0
    2.0000    4.6200    0.0000 H   0  0  0  0  0  0  0  0  0  0  0  0
    1.4631    3.6900    0.0000 H   0  0  0  0  0  0  0  0  0  0  0  0
    7.1962   -4.6200    0.0000 H   0  0  0  0  0  0  0  0  0  0  0  0
    7.7331   -3.6900    0.0000 H   0  0  0  0  0  0  0  0  0  0  0  0
  1  9  1  0  0  0  0
  1 33  1  0  0  0  0
  2 10  1  0  0  0  0
  2 34  1  0  0  0  0
  3  4  1  0  0  0  0
  3  7  1  0  0  0  0
  3  9  2  0  0  0  0
  4  8  1  0  0  0  0
  4 10  2  0  0  0  0
  5  7  2  0  0  0  0
  5 11  1  0  0  0  0
  5 13  1  0  0  0  0
  6  8  2  0  0  0  0
  6 12  1  0  0  0  0
  6 14  1  0  0  0  0
  7 21  1  0  0  0  0
  8 22  1  0  0  0  0
  9 15  1  0  0  0  0
 10 16  1  0  0  0  0
 11 17  1  0  0  0  0
 11 23  1  0  0  0  0
 11 24  1  0  0  0  0
 12 18  1  0  0  0  0
 12 25  1  0  0  0  0
 12 26  1  0  0  0  0
 13 15  2  0  0  0  0
 13 27  1  0  0  0  0
 14 16  2  0  0  0  0
 14 28  1  0  0  0  0
 15 29  1  0  0  0  0
 16 30  1  0  0  0  0
 17 19  2  0  0  0  0
 17 31  1  0  0  0  0
 18 20  2  0  0  0  0
 18 32  1  0  0  0  0
 19 35  1  0  0  0  0
 19 36  1  0  0  0  0
 20 37  1  0  0  0  0
 20 38  1  0  0  0  0
M  END
> <PUBCHEM_COMPOUND_CID>
72300

> <PUBCHEM_COMPOUND_CANONICALIZED>
1

> <PUBCHEM_CACTVS_COMPLEXITY>
293

> <PUBCHEM_CACTVS_HBOND_ACCEPTOR>
2

> <PUBCHEM_CACTVS_HBOND_DONOR>
2

> <PUBCHEM_CACTVS_ROTATABLE_BOND>
5

> <PUBCHEM_CACTVS_SUBSKEYS>
AAADceB4MAAAAAAAAAAAAAAAAAAAAAAAAAAwYAAAAAAAAAABQAAAGgAACAAADASAmAAwBoAAAgCAAiBCAAACAAAgIAAIiAAGCIgIJiKCERKAcAAkwBEImAfAwPAOoAACAAAIAABAAAQAABAAAAAAAAAAAA==

> <PUBCHEM_IUPAC_OPENEYE_NAME>
4-allyl-2-(5-allyl-2-hydroxy-phenyl)phenol

> <PUBCHEM_IUPAC_CAS_NAME>
2-(2-hydroxy-5-prop-2-enylphenyl)-4-prop-2-enylphenol

> <PUBCHEM_IUPAC_NAME_MARKUP>
2-(2-hydroxy-5-prop-2-enylphenyl)-4-prop-2-enylphenol

> <PUBCHEM_IUPAC_NAME>
2-(2-hydroxy-5-prop-2-enylphenyl)-4-prop-2-enylphenol

> <PUBCHEM_IUPAC_SYSTEMATIC_NAME>
2-(2-oxidanyl-5-prop-2-enyl-phenyl)-4-prop-2-enyl-phenol

> <PUBCHEM_IUPAC_TRADITIONAL_NAME>
4-allyl-2-(5-allyl-2-hydroxy-phenyl)phenol

> <PUBCHEM_IUPAC_INCHI>
InChI=1S/C18H18O2/c1-3-5-13-7-9-17(19)15(11-13)16-12-14(6-4-2)8-10-18(16)20/h3-4,7-12,19-20H,1-2,5-6H2

> <PUBCHEM_IUPAC_INCHIKEY>
VVOAZFWZEDHOOU-UHFFFAOYSA-N

> <PUBCHEM_XLOGP3_AA>
5

> <PUBCHEM_EXACT_MASS>
266.13068

> <PUBCHEM_MOLECULAR_FORMULA>
C18H18O2

> <PUBCHEM_MOLECULAR_WEIGHT>
266.3

> <PUBCHEM_OPENEYE_CAN_SMILES>
C=CCC1=CC(=C(C=C1)O)C2=C(C=CC(=C2)CC=C)O

> <PUBCHEM_OPENEYE_ISO_SMILES>
C=CCC1=CC(=C(C=C1)O)C2=C(C=CC(=C2)CC=C)O

> <PUBCHEM_CACTVS_TPSA>
40.5

> <PUBCHEM_MONOISOTOPIC_WEIGHT>
266.13068

> <PUBCHEM_TOTAL_CHARGE>
0

> <PUBCHEM_HEAVY_ATOM_COUNT>
20

> <PUBCHEM_ATOM_DEF_STEREO_COUNT>
0

> <PUBCHEM_ATOM_UDEF_STEREO_COUNT>
0

> <PUBCHEM_BOND_DEF_STEREO_COUNT>
0

> <PUBCHEM_BOND_UDEF_STEREO_COUNT>
0

> <PUBCHEM_ISOTOPIC_ATOM_COUNT>
0

> <PUBCHEM_COMPONENT_COUNT>
1

> <PUBCHEM_CACTVS_TAUTO_COUNT>
-1

> <PUBCHEM_COORDINATE_TYPE>
1
5
255

> <PUBCHEM_BONDANNOTATIONS>
10  16  8
13  15  8
14  16  8
3  7  8
3  9  8
4  10  8
4  8  8
5  13  8
5  7  8
6  14  8
6  8  8
9  15  8

$$$$
68381
  -OEChem-04052116402D

 26 26  0     0  0  0  0  0  0999 V2000
    2.0000    0.2694    0.0000 O   0  0  0  0  0  0  0  0  0  0  0  0
    3.3660   -2.7694    0.0000 O   0  0  0  0  0  0  0  0  0  0  0  0
    4.5981    1.7694    0.0000 C   0  0  0  0  0  0  0  0  0  0  0  0
    3.7320    1.2694    0.0000 C   0  0  0  0  0  0  0  0  0  0  0  0
    3.7320    0.2694    0.0000 C   0  0  0  0  0  0  0  0  0  0  0  0
    4.5981    2.7694    0.0000 C   0  0  0  0  0  0  0  0  0  0  0  0
    5.4641    1.2694    0.0000 C   0  0  0  0  0  0  0  0  0  0  0  0
    2.8660   -0.2306    0.0000 C   0  0  0  0  0  0  0  0  0  0  0  0
    2.8660   -1.2306    0.0000 C   0  0  0  0  0  0  0  0  0  0  0  0
    2.0570   -1.8184    0.0000 C   0  0  0  0  0  0  0  0  0  0  0  0
    3.6750   -1.8184    0.0000 C   0  0  0  0  0  0  0  0  0  0  0  0
    2.3660   -2.7694    0.0000 C   0  0  0  0  0  0  0  0  0  0  0  0
    4.5981    1.1494    0.0000 H   0  0  0  0  0  0  0  0  0  0  0  0
    3.5200    1.8520    0.0000 H   0  0  0  0  0  0  0  0  0  0  0  0
    3.1215    1.1618    0.0000 H   0  0  0  0  0  0  0  0  0  0  0  0
    3.9441   -0.3132    0.0000 H   0  0  0  0  0  0  0  0  0  0  0  0
    4.3426    0.3771    0.0000 H   0  0  0  0  0  0  0  0  0  0  0  0
    5.2181    2.7694    0.0000 H   0  0  0  0  0  0  0  0  0  0  0  0
    4.5981    3.3894    0.0000 H   0  0  0  0  0  0  0  0  0  0  0  0
    3.9781    2.7694    0.0000 H   0  0  0  0  0  0  0  0  0  0  0  0
    5.1541    0.7325    0.0000 H   0  0  0  0  0  0  0  0  0  0  0  0
    6.0010    0.9594    0.0000 H   0  0  0  0  0  0  0  0  0  0  0  0
    5.7741    1.8064    0.0000 H   0  0  0  0  0  0  0  0  0  0  0  0
    1.4674   -1.6268    0.0000 H   0  0  0  0  0  0  0  0  0  0  0  0
    4.2647   -1.6268    0.0000 H   0  0  0  0  0  0  0  0  0  0  0  0
    2.0016   -3.2710    0.0000 H   0  0  0  0  0  0  0  0  0  0  0  0
  1  8  2  0  0  0  0
  2 11  1  0  0  0  0
  2 12  1  0  0  0  0
  3  4  1  0  0  0  0
  3  6  1  0  0  0  0
  3  7  1  0  0  0  0
  3 13  1  0  0  0  0
  4  5  1  0  0  0  0
  4 14  1  0  0  0  0
  4 15  1  0  0  0  0
  5  8  1  0  0  0  0
  5 16  1  0  0  0  0
  5 17  1  0  0  0  0
  6 18  1  0  0  0  0
  6 19  1  0  0  0  0
  6 20  1  0  0  0  0
  7 21  1  0  0  0  0
  7 22  1  0  0  0  0
  7 23  1  0  0  0  0
  8  9  1  0  0  0  0
  9 10  1  0  0  0  0
  9 11  2  0  0  0  0
 10 12  2  0  0  0  0
 10 24  1  0  0  0  0
 11 25  1  0  0  0  0
 12 26  1  0  0  0  0
M  END
> <PUBCHEM_COMPOUND_CID>
68381

> <PUBCHEM_COMPOUND_CANONICALIZED>
1

> <PUBCHEM_CACTVS_COMPLEXITY>
152

> <PUBCHEM_CACTVS_HBOND_ACCEPTOR>
2

> <PUBCHEM_CACTVS_HBOND_DONOR>
0

> <PUBCHEM_CACTVS_ROTATABLE_BOND>
4

> <PUBCHEM_CACTVS_SUBSKEYS>
AAADccBwMAAAAAAAAAAAAAAAAAAAASAAAAAAAAAAAAAAAAABgAAAGgAAAAAADQSgmAIyBIAABECIAqhSgAACCAAkIAAIiAEGCMgMJhYMNQqCGWCk4BEIKYOLyOCOAAAAAAAAAAAAAAAAAAAAAAAAAAAAAA==

> <PUBCHEM_IUPAC_OPENEYE_NAME>
1-(3-furyl)-4-methyl-pentan-1-one

> <PUBCHEM_IUPAC_CAS_NAME>
1-(3-furanyl)-4-methyl-1-pentanone

> <PUBCHEM_IUPAC_NAME_MARKUP>
1-(furan-3-yl)-4-methylpentan-1-one

> <PUBCHEM_IUPAC_NAME>
1-(furan-3-yl)-4-methylpentan-1-one

> <PUBCHEM_IUPAC_SYSTEMATIC_NAME>
1-(furan-3-yl)-4-methyl-pentan-1-one

> <PUBCHEM_IUPAC_TRADITIONAL_NAME>
1-(3-furyl)-4-methyl-pentan-1-one

> <PUBCHEM_IUPAC_INCHI>
InChI=1S/C10H14O2/c1-8(2)3-4-10(11)9-5-6-12-7-9/h5-8H,3-4H2,1-2H3

> <PUBCHEM_IUPAC_INCHIKEY>
LVHLZMUFIYAEQB-UHFFFAOYSA-N

> <PUBCHEM_XLOGP3>
2.8

> <PUBCHEM_EXACT_MASS>
166.09938

> <PUBCHEM_MOLECULAR_FORMULA>
C10H14O2

> <PUBCHEM_MOLECULAR_WEIGHT>
166.22

> <PUBCHEM_OPENEYE_CAN_SMILES>
CC(C)CCC(=O)C1=COC=C1

> <PUBCHEM_OPENEYE_ISO_SMILES>
CC(C)CCC(=O)C1=COC=C1

> <PUBCHEM_CACTVS_TPSA>
30.2

> <PUBCHEM_MONOISOTOPIC_WEIGHT>
166.09938

> <PUBCHEM_TOTAL_CHARGE>
0

> <PUBCHEM_HEAVY_ATOM_COUNT>
12

> <PUBCHEM_ATOM_DEF_STEREO_COUNT>
0

> <PUBCHEM_ATOM_UDEF_STEREO_COUNT>
0

> <PUBCHEM_BOND_DEF_STEREO_COUNT>
0

> <PUBCHEM_BOND_UDEF_STEREO_COUNT>
0

> <PUBCHEM_ISOTOPIC_ATOM_COUNT>
0

> <PUBCHEM_COMPONENT_COUNT>
1

> <PUBCHEM_CACTVS_TAUTO_COUNT>
-1

> <PUBCHEM_COORDINATE_TYPE>
1
5
255

> <PUBCHEM_BONDANNOTATIONS>
10  12  8
2  11  8
2  12  8
9  10  8
9  11  8

$$$$
62662
  -OEChem-04052116402D

 27 18  0     0  0  0  0  0  0999 V2000
    0.0000    0.5000    0.0000 Fe  0  2  0  0  0  0  0  0  0  0  0  0
    1.0000    1.5000    0.0000 S   0  0  0  0  0  0  0  0  0  0  0  0
    0.0000    1.5000    0.0000 O   0  5  0  0  0  0  0  0  0  0  0  0
    1.0000    0.5000    0.0000 O   0  5  0  0  0  0  0  0  0  0  0  0
    2.0000    1.5000    0.0000 O   0  0  0  0  0  0  0  0  0  0  0  0
    1.0000    2.5000    0.0000 O   0  0  0  0  0  0  0  0  0  0  0  0
    4.5369    0.0000    0.0000 O   0  0  0  0  0  0  0  0  0  0  0  0
    1.0000    4.5000    0.0000 O   0  0  0  0  0  0  0  0  0  0  0  0
    1.0000    7.0000    0.0000 O   0  0  0  0  0  0  0  0  0  0  0  0
    4.5369    2.5000    0.0000 O   0  0  0  0  0  0  0  0  0  0  0  0
    7.6108    3.7500    0.0000 O   0  0  0  0  0  0  0  0  0  0  0  0
    4.5369    7.5000    0.0000 O   0  0  0  0  0  0  0  0  0  0  0  0
    4.5369    5.0000    0.0000 O   0  0  0  0  0  0  0  0  0  0  0  0
    5.0739    0.3100    0.0000 H   0  0  0  0  0  0  0  0  0  0  0  0
    4.0000    0.3100    0.0000 H   0  0  0  0  0  0  0  0  0  0  0  0
    1.5369    4.8100    0.0000 H   0  0  0  0  0  0  0  0  0  0  0  0
    0.4631    4.8100    0.0000 H   0  0  0  0  0  0  0  0  0  0  0  0
    1.5369    7.3100    0.0000 H   0  0  0  0  0  0  0  0  0  0  0  0
    0.4631    7.3100    0.0000 H   0  0  0  0  0  0  0  0  0  0  0  0
    5.0739    2.8100    0.0000 H   0  0  0  0  0  0  0  0  0  0  0  0
    4.0000    2.8100    0.0000 H   0  0  0  0  0  0  0  0  0  0  0  0
    8.1477    4.0600    0.0000 H   0  0  0  0  0  0  0  0  0  0  0  0
    7.0739    4.0600    0.0000 H   0  0  0  0  0  0  0  0  0  0  0  0
    5.0739    7.8100    0.0000 H   0  0  0  0  0  0  0  0  0  0  0  0
    4.0000    7.8100    0.0000 H   0  0  0  0  0  0  0  0  0  0  0  0
    5.0739    5.3100    0.0000 H   0  0  0  0  0  0  0  0  0  0  0  0
    4.0000    5.3100    0.0000 H   0  0  0  0  0  0  0  0  0  0  0  0
  2  3  1  0  0  0  0
  2  4  1  0  0  0  0
  2  5  2  0  0  0  0
  2  6  2  0  0  0  0
  7 14  1  0  0  0  0
  7 15  1  0  0  0  0
  8 16  1  0  0  0  0
  8 17  1  0  0  0  0
  9 18  1  0  0  0  0
  9 19  1  0  0  0  0
 10 20  1  0  0  0  0
 10 21  1  0  0  0  0
 11 22  1  0  0  0  0
 11 23  1  0  0  0  0
 12 24  1  0  0  0  0
 12 25  1  0  0  0  0
 13 26  1  0  0  0  0
 13 27  1  0  0  0  0
M  CHG  3   1   2   3  -1   4  -1
M  END
> <PUBCHEM_COMPOUND_CID>
62662

> <PUBCHEM_COMPOUND_CANONICALIZED>
1

> <PUBCHEM_CACTVS_COMPLEXITY>
62.2

> <PUBCHEM_CACTVS_HBOND_ACCEPTOR>
11

> <PUBCHEM_CACTVS_HBOND_DONOR>
7

> <PUBCHEM_CACTVS_ROTATABLE_BOND>
0

> <PUBCHEM_CACTVS_SUBSKEYS>
AAADccAAPABAAAAgAAAAAAAAAAAAAAAAAAAAAAAAAAAAAAAAAAAAAAAACAAAAAAAAAAAAAAAAAAAAAAAADAAAAAAAAAAAAAAAAAAAAAAAAAAAAAAAAAAAAAAAAAAAAAAAAAAAAAAAAAAAAAAAAAAAAAAAA==

> <PUBCHEM_IUPAC_OPENEYE_NAME>
ferrous;sulfate;heptahydrate

> <PUBCHEM_IUPAC_CAS_NAME>
iron(2+);sulfate;heptahydrate

> <PUBCHEM_IUPAC_NAME_MARKUP>
iron(2+);sulfate;heptahydrate

> <PUBCHEM_IUPAC_NAME>
iron(2+);sulfate;heptahydrate

> <PUBCHEM_IUPAC_SYSTEMATIC_NAME>
iron(2+);sulfate;heptahydrate

> <PUBCHEM_IUPAC_TRADITIONAL_NAME>
ferrous;sulfate;heptahydrate

> <PUBCHEM_IUPAC_INCHI>
InChI=1S/Fe.H2O4S.7H2O/c;1-5(2,3)4;;;;;;;/h;(H2,1,2,3,4);7*1H2/q+2;;;;;;;;/p-2

> <PUBCHEM_IUPAC_INCHIKEY>
SURQXAFEQWPFPV-UHFFFAOYSA-L

> <PUBCHEM_EXACT_MASS>
277.960618

> <PUBCHEM_MOLECULAR_FORMULA>
FeH14O11S

> <PUBCHEM_MOLECULAR_WEIGHT>
278.02

> <PUBCHEM_OPENEYE_CAN_SMILES>
O.O.O.O.O.O.O.[O-]S(=O)(=O)[O-].[Fe+2]

> <PUBCHEM_OPENEYE_ISO_SMILES>
O.O.O.O.O.O.O.[O-]S(=O)(=O)[O-].[Fe+2]

> <PUBCHEM_CACTVS_TPSA>
95.6

> <PUBCHEM_MONOISOTOPIC_WEIGHT>
277.960618

> <PUBCHEM_TOTAL_CHARGE>
0

> <PUBCHEM_HEAVY_ATOM_COUNT>
13

> <PUBCHEM_ATOM_DEF_STEREO_COUNT>
0

> <PUBCHEM_ATOM_UDEF_STEREO_COUNT>
0

> <PUBCHEM_BOND_DEF_STEREO_COUNT>
0

> <PUBCHEM_BOND_UDEF_STEREO_COUNT>
0

> <PUBCHEM_ISOTOPIC_ATOM_COUNT>
0

> <PUBCHEM_COMPONENT_COUNT>
9

> <PUBCHEM_CACTVS_TAUTO_COUNT>
-1

> <PUBCHEM_COORDINATE_TYPE>
1
5
255

$$$$
62389
  -OEChem-04052116402D

 28 30  0     0  0  0  0  0  0999 V2000
    3.7320   -0.2500    0.0000 N   0  0  0  0  0  0  0  0  0  0  0  0
    5.5443   -1.4453    0.0000 N   0  0  0  0  0  0  0  0  0  0  0  0
    2.8660   -1.7500    0.0000 N   0  0  0  0  0  0  0  0  0  0  0  0
    5.5443   -3.0547    0.0000 N   0  0  0  0  0  0  0  0  0  0  0  0
    3.7320   -3.2500    0.0000 N   0  0  0  0  0  0  0  0  0  0  0  0
    2.8660    0.2500    0.0000 C   0  0  0  0  0  0  0  0  0  0  0  0
    4.5981   -1.7500    0.0000 C   0  0  0  0  0  0  0  0  0  0  0  0
    3.7320   -1.2500    0.0000 C   0  0  0  0  0  0  0  0  0  0  0  0
    2.8660    1.2500    0.0000 C   0  0  0  0  0  0  0  0  0  0  0  0
    4.5981   -2.7500    0.0000 C   0  0  0  0  0  0  0  0  0  0  0  0
    3.7320    1.7500    0.0000 C   0  0  0  0  0  0  0  0  0  0  0  0
    2.0000    1.7500    0.0000 C   0  0  0  0  0  0  0  0  0  0  0  0
    6.1279   -2.2500    0.0000 C   0  0  0  0  0  0  0  0  0  0  0  0
    3.7320    2.7500    0.0000 C   0  0  0  0  0  0  0  0  0  0  0  0
    2.0000    2.7500    0.0000 C   0  0  0  0  0  0  0  0  0  0  0  0
    2.8660   -2.7500    0.0000 C   0  0  0  0  0  0  0  0  0  0  0  0
    2.8660    3.2500    0.0000 C   0  0  0  0  0  0  0  0  0  0  0  0
    2.2554    0.3577    0.0000 H   0  0  0  0  0  0  0  0  0  0  0  0
    2.6540   -0.3326    0.0000 H   0  0  0  0  0  0  0  0  0  0  0  0
    4.2690    0.0600    0.0000 H   0  0  0  0  0  0  0  0  0  0  0  0
    5.7369   -0.8559    0.0000 H   0  0  0  0  0  0  0  0  0  0  0  0
    4.2690    1.4400    0.0000 H   0  0  0  0  0  0  0  0  0  0  0  0
    1.4631    1.4400    0.0000 H   0  0  0  0  0  0  0  0  0  0  0  0
    6.7479   -2.2500    0.0000 H   0  0  0  0  0  0  0  0  0  0  0  0
    4.2690    3.0600    0.0000 H   0  0  0  0  0  0  0  0  0  0  0  0
    1.4631    3.0600    0.0000 H   0  0  0  0  0  0  0  0  0  0  0  0
    2.3291   -3.0600    0.0000 H   0  0  0  0  0  0  0  0  0  0  0  0
    2.8660    3.8700    0.0000 H   0  0  0  0  0  0  0  0  0  0  0  0
  1  6  1  0  0  0  0
  1  8  1  0  0  0  0
  1 20  1  0  0  0  0
  2  7  1  0  0  0  0
  2 13  1  0  0  0  0
  2 21  1  0  0  0  0
  3  8  2  0  0  0  0
  3 16  1  0  0  0  0
  4 10  1  0  0  0  0
  4 13  2  0  0  0  0
  5 10  1  0  0  0  0
  5 16  2  0  0  0  0
  6  9  1  0  0  0  0
  6 18  1  0  0  0  0
  6 19  1  0  0  0  0
  7  8  1  0  0  0  0
  7 10  2  0  0  0  0
  9 11  2  0  0  0  0
  9 12  1  0  0  0  0
 11 14  1  0  0  0  0
 11 22  1  0  0  0  0
 12 15  2  0  0  0  0
 12 23  1  0  0  0  0
 13 24  1  0  0  0  0
 14 17  2  0  0  0  0
 14 25  1  0  0  0  0
 15 17  1  0  0  0  0
 15 26  1  0  0  0  0
 16 27  1  0  0  0  0
 17 28  1  0  0  0  0
M  END
> <PUBCHEM_COMPOUND_CID>
62389

> <PUBCHEM_COMPOUND_CANONICALIZED>
1

> <PUBCHEM_CACTVS_COMPLEXITY>
241

> <PUBCHEM_CACTVS_HBOND_ACCEPTOR>
4

> <PUBCHEM_CACTVS_HBOND_DONOR>
2

> <PUBCHEM_CACTVS_ROTATABLE_BOND>
3

> <PUBCHEM_CACTVS_SUBSKEYS>
AAADccBzgAAAAAAAAAAAAAAAAAAAAWAAAAA8QAAAAAAAAFgB/AAAHAAQAAAADAjBHwQ18L7JkACgAyZjZACCgC2xEKAJ2aAoVJiIaCLA2VGUJAhogALIiCcQgAAOAAAAAAAAAAAAAAAAAAAAAAAAAAAAAA==

> <PUBCHEM_IUPAC_OPENEYE_NAME>
N-benzyl-7H-purin-6-amine

> <PUBCHEM_IUPAC_CAS_NAME>
N-(phenylmethyl)-7H-purin-6-amine

> <PUBCHEM_IUPAC_NAME_MARKUP>
<I>N</I>-benzyl-7<I>H</I>-purin-6-amine

> <PUBCHEM_IUPAC_NAME>
N-benzyl-7H-purin-6-amine

> <PUBCHEM_IUPAC_SYSTEMATIC_NAME>
N-(phenylmethyl)-7H-purin-6-amine

> <PUBCHEM_IUPAC_TRADITIONAL_NAME>
benzyl(7H-purin-6-yl)amine

> <PUBCHEM_IUPAC_INCHI>
InChI=1S/C12H11N5/c1-2-4-9(5-3-1)6-13-11-10-12(15-7-14-10)17-8-16-11/h1-5,7-8H,6H2,(H2,13,14,15,16,17)

> <PUBCHEM_IUPAC_INCHIKEY>
NWBJYWHLCVSVIJ-UHFFFAOYSA-N

> <PUBCHEM_XLOGP3>
2.1

> <PUBCHEM_EXACT_MASS>
225.101445

> <PUBCHEM_MOLECULAR_FORMULA>
C12H11N5

> <PUBCHEM_MOLECULAR_WEIGHT>
225.25

> <PUBCHEM_OPENEYE_CAN_SMILES>
C1=CC=C(C=C1)CNC2=NC=NC3=C2NC=N3

> <PUBCHEM_OPENEYE_ISO_SMILES>
C1=CC=C(C=C1)CNC2=NC=NC3=C2NC=N3

> <PUBCHEM_CACTVS_TPSA>
66.5

> <PUBCHEM_MONOISOTOPIC_WEIGHT>
225.101445

> <PUBCHEM_TOTAL_CHARGE>
0

> <PUBCHEM_HEAVY_ATOM_COUNT>
17

> <PUBCHEM_ATOM_DEF_STEREO_COUNT>
0

> <PUBCHEM_ATOM_UDEF_STEREO_COUNT>
0

> <PUBCHEM_BOND_DEF_STEREO_COUNT>
0

> <PUBCHEM_BOND_UDEF_STEREO_COUNT>
0

> <PUBCHEM_ISOTOPIC_ATOM_COUNT>
0

> <PUBCHEM_COMPONENT_COUNT>
1

> <PUBCHEM_CACTVS_TAUTO_COUNT>
-1

> <PUBCHEM_COORDINATE_TYPE>
1
5
255

> <PUBCHEM_BONDANNOTATIONS>
11  14  8
12  15  8
14  17  8
15  17  8
2  13  8
2  7  8
3  16  8
3  8  8
4  10  8
4  13  8
5  10  8
5  16  8
7  10  8
7  8  8
9  11  8
9  12  8

$$$$
40896
  -OEChem-04052116402D

 33 33  0     0  0  0  0  0  0999 V2000
    4.5981    1.5670    0.0000 S   0  0  0  0  0  0  0  0  0  0  0  0
    6.3301    2.5670    0.0000 F   0  0  0  0  0  0  0  0  0  0  0  0
    4.9641    2.9330    0.0000 F   0  0  0  0  0  0  0  0  0  0  0  0
    5.9641    1.2010    0.0000 F   0  0  0  0  0  0  0  0  0  0  0  0
    4.0981    2.4330    0.0000 O   0  0  0  0  0  0  0  0  0  0  0  0
    5.0981    0.7010    0.0000 O   0  0  0  0  0  0  0  0  0  0  0  0
    6.3301   -0.4330    0.0000 O   0  0  0  0  0  0  0  0  0  0  0  0
    3.7320    1.0670    0.0000 N   0  0  0  0  0  0  0  0  0  0  0  0
    5.4641   -1.9330    0.0000 N   0  0  0  0  0  0  0  0  0  0  0  0
    3.7320    0.0670    0.0000 C   0  0  0  0  0  0  0  0  0  0  0  0
    2.8660   -0.4330    0.0000 C   0  0  0  0  0  0  0  0  0  0  0  0
    3.7320   -1.9330    0.0000 C   0  0  0  0  0  0  0  0  0  0  0  0
    4.5981   -1.4330    0.0000 C   0  0  0  0  0  0  0  0  0  0  0  0
    4.5981   -0.4330    0.0000 C   0  0  0  0  0  0  0  0  0  0  0  0
    2.8660   -1.4330    0.0000 C   0  0  0  0  0  0  0  0  0  0  0  0
    2.0000    0.0670    0.0000 C   0  0  0  0  0  0  0  0  0  0  0  0
    3.7320   -2.9330    0.0000 C   0  0  0  0  0  0  0  0  0  0  0  0
    5.4641    2.0670    0.0000 C   0  0  0  0  0  0  0  0  0  0  0  0
    6.3301   -1.4330    0.0000 C   0  0  0  0  0  0  0  0  0  0  0  0
    7.1962   -1.9330    0.0000 C   0  0  0  0  0  0  0  0  0  0  0  0
    5.1350   -0.1230    0.0000 H   0  0  0  0  0  0  0  0  0  0  0  0
    2.3291   -1.7430    0.0000 H   0  0  0  0  0  0  0  0  0  0  0  0
    3.1951    1.3770    0.0000 H   0  0  0  0  0  0  0  0  0  0  0  0
    2.3100    0.6039    0.0000 H   0  0  0  0  0  0  0  0  0  0  0  0
    1.4631    0.3770    0.0000 H   0  0  0  0  0  0  0  0  0  0  0  0
    1.6900   -0.4699    0.0000 H   0  0  0  0  0  0  0  0  0  0  0  0
    3.1120   -2.9330    0.0000 H   0  0  0  0  0  0  0  0  0  0  0  0
    3.7320   -3.5530    0.0000 H   0  0  0  0  0  0  0  0  0  0  0  0
    4.3520   -2.9330    0.0000 H   0  0  0  0  0  0  0  0  0  0  0  0
    5.4641   -2.5530    0.0000 H   0  0  0  0  0  0  0  0  0  0  0  0
    6.8862   -2.4700    0.0000 H   0  0  0  0  0  0  0  0  0  0  0  0
    7.7331   -2.2430    0.0000 H   0  0  0  0  0  0  0  0  0  0  0  0
    7.5062   -1.3961    0.0000 H   0  0  0  0  0  0  0  0  0  0  0  0
  1  5  2  0  0  0  0
  1  6  2  0  0  0  0
  1  8  1  0  0  0  0
  1 18  1  0  0  0  0
  2 18  1  0  0  0  0
  3 18  1  0  0  0  0
  4 18  1  0  0  0  0
  7 19  2  0  0  0  0
  8 10  1  0  0  0  0
  8 23  1  0  0  0  0
  9 13  1  0  0  0  0
  9 19  1  0  0  0  0
  9 30  1  0  0  0  0
 10 11  2  0  0  0  0
 10 14  1  0  0  0  0
 11 15  1  0  0  0  0
 11 16  1  0  0  0  0
 12 13  1  0  0  0  0
 12 15  2  0  0  0  0
 12 17  1  0  0  0  0
 13 14  2  0  0  0  0
 14 21  1  0  0  0  0
 15 22  1  0  0  0  0
 16 24  1  0  0  0  0
 16 25  1  0  0  0  0
 16 26  1  0  0  0  0
 17 27  1  0  0  0  0
 17 28  1  0  0  0  0
 17 29  1  0  0  0  0
 19 20  1  0  0  0  0
 20 31  1  0  0  0  0
 20 32  1  0  0  0  0
 20 33  1  0  0  0  0
M  END
> <PUBCHEM_COMPOUND_CID>
40896

> <PUBCHEM_COMPOUND_CANONICALIZED>
1

> <PUBCHEM_CACTVS_COMPLEXITY>
459

> <PUBCHEM_CACTVS_HBOND_ACCEPTOR>
7

> <PUBCHEM_CACTVS_HBOND_DONOR>
2

> <PUBCHEM_CACTVS_ROTATABLE_BOND>
3

> <PUBCHEM_CACTVS_SUBSKEYS>
AAADccBzMYBAAAAAAAAAAAAAAAAAAAAAAAAwAAAAAAAAAAABAAAAHwQQQAAADAiBmBAywILAAAKIAiVSUHCCAAAhAgAAiAAAZIgIICLA0dGEIAhglADIyAcQgEAOCAACAAQCAAAQAAQACAQAAAAAAAAAAA==

> <PUBCHEM_IUPAC_OPENEYE_NAME>
N-[2,4-dimethyl-5-(trifluoromethylsulfonylamino)phenyl]acetamide

> <PUBCHEM_IUPAC_CAS_NAME>
N-[2,4-dimethyl-5-(trifluoromethylsulfonylamino)phenyl]acetamide

> <PUBCHEM_IUPAC_NAME_MARKUP>
<I>N</I>-[2,4-dimethyl-5-(trifluoromethylsulfonylamino)phenyl]acetamide

> <PUBCHEM_IUPAC_NAME>
N-[2,4-dimethyl-5-(trifluoromethylsulfonylamino)phenyl]acetamide

> <PUBCHEM_IUPAC_SYSTEMATIC_NAME>
N-[2,4-dimethyl-5-(trifluoromethylsulfonylamino)phenyl]ethanamide

> <PUBCHEM_IUPAC_TRADITIONAL_NAME>
N-[2,4-dimethyl-5-(triflylamino)phenyl]acetamide

> <PUBCHEM_IUPAC_INCHI>
InChI=1S/C11H13F3N2O3S/c1-6-4-7(2)10(5-9(6)15-8(3)17)16-20(18,19)11(12,13)14/h4-5,16H,1-3H3,(H,15,17)

> <PUBCHEM_IUPAC_INCHIKEY>
OKIBNKKYNPBDRS-UHFFFAOYSA-N

> <PUBCHEM_XLOGP3_AA>
2

> <PUBCHEM_EXACT_MASS>
310.059898

> <PUBCHEM_MOLECULAR_FORMULA>
C11H13F3N2O3S

> <PUBCHEM_MOLECULAR_WEIGHT>
310.29

> <PUBCHEM_OPENEYE_CAN_SMILES>
CC1=CC(=C(C=C1NC(=O)C)NS(=O)(=O)C(F)(F)F)C

> <PUBCHEM_OPENEYE_ISO_SMILES>
CC1=CC(=C(C=C1NC(=O)C)NS(=O)(=O)C(F)(F)F)C

> <PUBCHEM_CACTVS_TPSA>
83.6

> <PUBCHEM_MONOISOTOPIC_WEIGHT>
310.059898

> <PUBCHEM_TOTAL_CHARGE>
0

> <PUBCHEM_HEAVY_ATOM_COUNT>
20

> <PUBCHEM_ATOM_DEF_STEREO_COUNT>
0

> <PUBCHEM_ATOM_UDEF_STEREO_COUNT>
0

> <PUBCHEM_BOND_DEF_STEREO_COUNT>
0

> <PUBCHEM_BOND_UDEF_STEREO_COUNT>
0

> <PUBCHEM_ISOTOPIC_ATOM_COUNT>
0

> <PUBCHEM_COMPONENT_COUNT>
1

> <PUBCHEM_CACTVS_TAUTO_COUNT>
-1

> <PUBCHEM_COORDINATE_TYPE>
1
5
255

> <PUBCHEM_BONDANNOTATIONS>
10  11  8
10  14  8
11  15  8
12  13  8
12  15  8
13  14  8

$$$$
40087
  -OEChem-04052116402D

 23 24  0     0  0  0  0  0  0999 V2000
    5.5116    1.4921    0.0000 S   0  0  0  0  0  0  0  0  0  0  0  0
    4.5981   -0.1012    0.0000 O   0  0  0  0  0  0  0  0  0  0  0  0
    2.8660   -0.1012    0.0000 N   0  0  0  0  0  0  0  0  0  0  0  0
    3.7320    1.3988    0.0000 N   0  0  0  0  0  0  0  0  0  0  0  0
    5.6808    3.1012    0.0000 N   0  0  0  0  0  0  0  0  0  0  0  0
    6.1808    2.2352    0.0000 N   0  0  0  0  0  0  0  0  0  0  0  0
    2.8660   -1.1012    0.0000 C   0  0  0  0  0  0  0  0  0  0  0  0
    2.0000   -1.6012    0.0000 C   0  0  0  0  0  0  0  0  0  0  0  0
    3.7320   -1.6012    0.0000 C   0  0  0  0  0  0  0  0  0  0  0  0
    3.7320    0.3988    0.0000 C   0  0  0  0  0  0  0  0  0  0  0  0
    2.0000   -2.6012    0.0000 C   0  0  0  0  0  0  0  0  0  0  0  0
    3.7320   -2.6012    0.0000 C   0  0  0  0  0  0  0  0  0  0  0  0
    2.8660   -3.1012    0.0000 C   0  0  0  0  0  0  0  0  0  0  0  0
    4.5981    1.8988    0.0000 C   0  0  0  0  0  0  0  0  0  0  0  0
    4.7026    2.8933    0.0000 C   0  0  0  0  0  0  0  0  0  0  0  0
    2.3291    0.2088    0.0000 H   0  0  0  0  0  0  0  0  0  0  0  0
    1.4631   -1.2912    0.0000 H   0  0  0  0  0  0  0  0  0  0  0  0
    4.2690   -1.2912    0.0000 H   0  0  0  0  0  0  0  0  0  0  0  0
    3.1951    1.7088    0.0000 H   0  0  0  0  0  0  0  0  0  0  0  0
    1.4631   -2.9112    0.0000 H   0  0  0  0  0  0  0  0  0  0  0  0
    4.2690   -2.9112    0.0000 H   0  0  0  0  0  0  0  0  0  0  0  0
    2.8660   -3.7212    0.0000 H   0  0  0  0  0  0  0  0  0  0  0  0
    4.2419    3.3082    0.0000 H   0  0  0  0  0  0  0  0  0  0  0  0
  1  6  1  0  0  0  0
  1 14  1  0  0  0  0
  2 10  2  0  0  0  0
  3  7  1  0  0  0  0
  3 10  1  0  0  0  0
  3 16  1  0  0  0  0
  4 10  1  0  0  0  0
  4 14  1  0  0  0  0
  4 19  1  0  0  0  0
  5  6  2  0  0  0  0
  5 15  1  0  0  0  0
  7  8  2  0  0  0  0
  7  9  1  0  0  0  0
  8 11  1  0  0  0  0
  8 17  1  0  0  0  0
  9 12  2  0  0  0  0
  9 18  1  0  0  0  0
 11 13  2  0  0  0  0
 11 20  1  0  0  0  0
 12 13  1  0  0  0  0
 12 21  1  0  0  0  0
 13 22  1  0  0  0  0
 14 15  2  0  0  0  0
 15 23  1  0  0  0  0
M  END
> <PUBCHEM_COMPOUND_CID>
40087

> <PUBCHEM_COMPOUND_CANONICALIZED>
1

> <PUBCHEM_CACTVS_COMPLEXITY>
220

> <PUBCHEM_CACTVS_HBOND_ACCEPTOR>
4

> <PUBCHEM_CACTVS_HBOND_DONOR>
2

> <PUBCHEM_CACTVS_ROTATABLE_BOND>
2

> <PUBCHEM_CACTVS_SUBSKEYS>
AAADccBzoABAAAAAAAAAAAAAAAAAAWAAAAAwAAAAAAAAAAABwAAAHgQYQAAACAjBUgQ9wZLAAACuADRnUACCJBAhkglYiAwAdIiIYCLAkZGUIAholAJIyCcQAAAAAAAAAAAAAAAAAAAAAAAAAAAAAAAAAA==

> <PUBCHEM_IUPAC_OPENEYE_NAME>
1-phenyl-3-(thiadiazol-5-yl)urea

> <PUBCHEM_IUPAC_CAS_NAME>
1-phenyl-3-(5-thiadiazolyl)urea

> <PUBCHEM_IUPAC_NAME_MARKUP>
1-phenyl-3-(thiadiazol-5-yl)urea

> <PUBCHEM_IUPAC_NAME>
1-phenyl-3-(thiadiazol-5-yl)urea

> <PUBCHEM_IUPAC_SYSTEMATIC_NAME>
1-phenyl-3-(1,2,3-thiadiazol-5-yl)urea

> <PUBCHEM_IUPAC_TRADITIONAL_NAME>
1-phenyl-3-(thiadiazol-5-yl)urea

> <PUBCHEM_IUPAC_INCHI>
InChI=1S/C9H8N4OS/c14-9(12-8-6-10-13-15-8)11-7-4-2-1-3-5-7/h1-6H,(H2,11,12,14)

> <PUBCHEM_IUPAC_INCHIKEY>
HFCYZXMHUIHAQI-UHFFFAOYSA-N

> <PUBCHEM_XLOGP3_AA>
1.3

> <PUBCHEM_EXACT_MASS>
220.041882

> <PUBCHEM_MOLECULAR_FORMULA>
C9H8N4OS

> <PUBCHEM_MOLECULAR_WEIGHT>
220.25

> <PUBCHEM_OPENEYE_CAN_SMILES>
C1=CC=C(C=C1)NC(=O)NC2=CN=NS2

> <PUBCHEM_OPENEYE_ISO_SMILES>
C1=CC=C(C=C1)NC(=O)NC2=CN=NS2

> <PUBCHEM_CACTVS_TPSA>
95.2

> <PUBCHEM_MONOISOTOPIC_WEIGHT>
220.041882

> <PUBCHEM_TOTAL_CHARGE>
0

> <PUBCHEM_HEAVY_ATOM_COUNT>
15

> <PUBCHEM_ATOM_DEF_STEREO_COUNT>
0

> <PUBCHEM_ATOM_UDEF_STEREO_COUNT>
0

> <PUBCHEM_BOND_DEF_STEREO_COUNT>
0

> <PUBCHEM_BOND_UDEF_STEREO_COUNT>
0

> <PUBCHEM_ISOTOPIC_ATOM_COUNT>
0

> <PUBCHEM_COMPONENT_COUNT>
1

> <PUBCHEM_CACTVS_TAUTO_COUNT>
-1

> <PUBCHEM_COORDINATE_TYPE>
1
5
255

> <PUBCHEM_BONDANNOTATIONS>
1  14  8
1  6  8
11  13  8
12  13  8
14  15  8
5  15  8
5  6  8
7  8  8
7  9  8
8  11  8
9  12  8

$$$$
34526
  -OEChem-04052116402D

 39 39  0     0  0  0  0  0  0999 V2000
    4.2320    0.6160    0.0000 S   0  0  0  0  0  0  0  0  0  0  0  0
    3.7320   -0.2500    0.0000 P   0  0  0  0  0  0  0  0  0  0  0  0
    4.5981   -0.7500    0.0000 O   0  0  0  0  0  0  0  0  0  0  0  0
    2.8660    0.2500    0.0000 O   0  0  0  0  0  0  0  0  0  0  0  0
    3.2320   -1.1160    0.0000 O   0  0  0  0  0  0  0  0  0  0  0  0
    8.0622   -0.7500    0.0000 N   0  0  0  0  0  0  0  0  0  0  0  0
    7.1962    0.7500    0.0000 N   0  0  0  0  0  0  0  0  0  0  0  0
    6.3301   -0.7500    0.0000 N   0  0  0  0  0  0  0  0  0  0  0  0
    8.9282   -0.2500    0.0000 C   0  0  0  0  0  0  0  0  0  0  0  0
    8.0622   -1.7500    0.0000 C   0  0  0  0  0  0  0  0  0  0  0  0
    7.1962   -0.2500    0.0000 C   0  0  0  0  0  0  0  0  0  0  0  0
    9.7942   -0.7500    0.0000 C   0  0  0  0  0  0  0  0  0  0  0  0
    8.9282   -2.2500    0.0000 C   0  0  0  0  0  0  0  0  0  0  0  0
    6.3301    1.2500    0.0000 C   0  0  0  0  0  0  0  0  0  0  0  0
    5.4641   -0.2500    0.0000 C   0  0  0  0  0  0  0  0  0  0  0  0
    5.4641    0.7500    0.0000 C   0  0  0  0  0  0  0  0  0  0  0  0
    6.3301    2.2500    0.0000 C   0  0  0  0  0  0  0  0  0  0  0  0
    2.0000   -0.2500    0.0000 C   0  0  0  0  0  0  0  0  0  0  0  0
    3.7320   -1.9820    0.0000 C   0  0  0  0  0  0  0  0  0  0  0  0
    9.3267    0.2249    0.0000 H   0  0  0  0  0  0  0  0  0  0  0  0
    8.5297    0.2249    0.0000 H   0  0  0  0  0  0  0  0  0  0  0  0
    7.4516   -1.6423    0.0000 H   0  0  0  0  0  0  0  0  0  0  0  0
    7.8501   -2.3326    0.0000 H   0  0  0  0  0  0  0  0  0  0  0  0
    9.4842   -1.2869    0.0000 H   0  0  0  0  0  0  0  0  0  0  0  0
   10.3312   -1.0600    0.0000 H   0  0  0  0  0  0  0  0  0  0  0  0
   10.1042   -0.2131    0.0000 H   0  0  0  0  0  0  0  0  0  0  0  0
    8.6182   -2.7869    0.0000 H   0  0  0  0  0  0  0  0  0  0  0  0
    9.4651   -2.5600    0.0000 H   0  0  0  0  0  0  0  0  0  0  0  0
    9.2382   -1.7131    0.0000 H   0  0  0  0  0  0  0  0  0  0  0  0
    4.9272    1.0600    0.0000 H   0  0  0  0  0  0  0  0  0  0  0  0
    6.9501    2.2500    0.0000 H   0  0  0  0  0  0  0  0  0  0  0  0
    6.3301    2.8700    0.0000 H   0  0  0  0  0  0  0  0  0  0  0  0
    5.7101    2.2500    0.0000 H   0  0  0  0  0  0  0  0  0  0  0  0
    1.6900    0.2869    0.0000 H   0  0  0  0  0  0  0  0  0  0  0  0
    1.4631   -0.5600    0.0000 H   0  0  0  0  0  0  0  0  0  0  0  0
    2.3100   -0.7869    0.0000 H   0  0  0  0  0  0  0  0  0  0  0  0
    3.1951   -2.2920    0.0000 H   0  0  0  0  0  0  0  0  0  0  0  0
    4.0420   -2.5190    0.0000 H   0  0  0  0  0  0  0  0  0  0  0  0
    4.2690   -1.6720    0.0000 H   0  0  0  0  0  0  0  0  0  0  0  0
  1  2  2  0  0  0  0
  2  3  1  0  0  0  0
  2  4  1  0  0  0  0
  2  5  1  0  0  0  0
  3 15  1  0  0  0  0
  4 18  1  0  0  0  0
  5 19  1  0  0  0  0
  6  9  1  0  0  0  0
  6 10  1  0  0  0  0
  6 11  1  0  0  0  0
  7 11  2  0  0  0  0
  7 14  1  0  0  0  0
  8 11  1  0  0  0  0
  8 15  2  0  0  0  0
  9 12  1  0  0  0  0
  9 20  1  0  0  0  0
  9 21  1  0  0  0  0
 10 13  1  0  0  0  0
 10 22  1  0  0  0  0
 10 23  1  0  0  0  0
 12 24  1  0  0  0  0
 12 25  1  0  0  0  0
 12 26  1  0  0  0  0
 13 27  1  0  0  0  0
 13 28  1  0  0  0  0
 13 29  1  0  0  0  0
 14 16  2  0  0  0  0
 14 17  1  0  0  0  0
 15 16  1  0  0  0  0
 16 30  1  0  0  0  0
 17 31  1  0  0  0  0
 17 32  1  0  0  0  0
 17 33  1  0  0  0  0
 18 34  1  0  0  0  0
 18 35  1  0  0  0  0
 18 36  1  0  0  0  0
 19 37  1  0  0  0  0
 19 38  1  0  0  0  0
 19 39  1  0  0  0  0
M  END
> <PUBCHEM_COMPOUND_CID>
34526

> <PUBCHEM_COMPOUND_CANONICALIZED>
1

> <PUBCHEM_CACTVS_COMPLEXITY>
310

> <PUBCHEM_CACTVS_HBOND_ACCEPTOR>
7

> <PUBCHEM_CACTVS_HBOND_DONOR>
0

> <PUBCHEM_CACTVS_ROTATABLE_BOND>
7

> <PUBCHEM_CACTVS_SUBSKEYS>
AAADceBzMAJAAAAAAAAAAAAAAAAAAAAAAAAsAAAAAAAAAAABgAAAHgAAACAACAjBlgYzlJcIERCgASRiZACAgCkhIqABGCA+bBiALgBAycIEFAhOABrAQCAAAAAAAAAAAAAAAAAAAAAAAAAAAAAAAAAAAA==

> <PUBCHEM_IUPAC_OPENEYE_NAME>
4-dimethoxyphosphinothioyloxy-N,N-diethyl-6-methyl-pyrimidin-2-amine

> <PUBCHEM_IUPAC_CAS_NAME>
4-dimethoxyphosphinothioyloxy-N,N-diethyl-6-methyl-2-pyrimidinamine

> <PUBCHEM_IUPAC_NAME_MARKUP>
4-dimethoxyphosphinothioyloxy-<I>N</I>,<I>N</I>-diethyl-6-methylpyrimidin-2-amine

> <PUBCHEM_IUPAC_NAME>
4-dimethoxyphosphinothioyloxy-N,N-diethyl-6-methylpyrimidin-2-amine

> <PUBCHEM_IUPAC_SYSTEMATIC_NAME>
4-dimethoxyphosphinothioyloxy-N,N-diethyl-6-methyl-pyrimidin-2-amine

> <PUBCHEM_IUPAC_TRADITIONAL_NAME>
(4-dimethoxythiophosphoryloxy-6-methyl-pyrimidin-2-yl)-diethyl-amine

> <PUBCHEM_IUPAC_INCHI>
InChI=1S/C11H20N3O3PS/c1-6-14(7-2)11-12-9(3)8-10(13-11)17-18(19,15-4)16-5/h8H,6-7H2,1-5H3

> <PUBCHEM_IUPAC_INCHIKEY>
QHOQHJPRIBSPCY-UHFFFAOYSA-N

> <PUBCHEM_XLOGP3>
4.2

> <PUBCHEM_EXACT_MASS>
305.0963

> <PUBCHEM_MOLECULAR_FORMULA>
C11H20N3O3PS

> <PUBCHEM_MOLECULAR_WEIGHT>
305.34

> <PUBCHEM_OPENEYE_CAN_SMILES>
CCN(CC)C1=NC(=CC(=N1)OP(=S)(OC)OC)C

> <PUBCHEM_OPENEYE_ISO_SMILES>
CCN(CC)C1=NC(=CC(=N1)OP(=S)(OC)OC)C

> <PUBCHEM_CACTVS_TPSA>
88.8

> <PUBCHEM_MONOISOTOPIC_WEIGHT>
305.0963

> <PUBCHEM_TOTAL_CHARGE>
0

> <PUBCHEM_HEAVY_ATOM_COUNT>
19

> <PUBCHEM_ATOM_DEF_STEREO_COUNT>
0

> <PUBCHEM_ATOM_UDEF_STEREO_COUNT>
0

> <PUBCHEM_BOND_DEF_STEREO_COUNT>
0

> <PUBCHEM_BOND_UDEF_STEREO_COUNT>
0

> <PUBCHEM_ISOTOPIC_ATOM_COUNT>
0

> <PUBCHEM_COMPONENT_COUNT>
1

> <PUBCHEM_CACTVS_TAUTO_COUNT>
-1

> <PUBCHEM_COORDINATE_TYPE>
1
5
255

> <PUBCHEM_BONDANNOTATIONS>
14  16  8
15  16  8
7  11  8
7  14  8
8  11  8
8  15  8

$$$$
32021
  -OEChem-04052116402D

 31 32  0     1  0  0  0  0  0999 V2000
    2.0000    2.9400    0.0000 O   0  0  0  0  0  0  0  0  0  0  0  0
    4.5981   -0.5600    0.0000 N   0  0  0  0  0  0  0  0  0  0  0  0
    6.4103   -1.7553    0.0000 N   0  0  0  0  0  0  0  0  0  0  0  0
    3.7320   -2.0600    0.0000 N   0  0  0  0  0  0  0  0  0  0  0  0
    6.4103   -3.3647    0.0000 N   0  0  0  0  0  0  0  0  0  0  0  0
    4.5981   -3.5600    0.0000 N   0  0  0  0  0  0  0  0  0  0  0  0
    2.8660    1.4400    0.0000 C   0  0  3  0  0  0  0  0  0  0  0  0
    3.7320    0.9400    0.0000 C   0  0  0  0  0  0  0  0  0  0  0  0
    3.7320   -0.0600    0.0000 C   0  0  0  0  0  0  0  0  0  0  0  0
    2.8660    2.4400    0.0000 C   0  0  0  0  0  0  0  0  0  0  0  0
    2.0000    0.9400    0.0000 C   0  0  0  0  0  0  0  0  0  0  0  0
    4.5981   -1.5600    0.0000 C   0  0  0  0  0  0  0  0  0  0  0  0
    5.4641   -2.0600    0.0000 C   0  0  0  0  0  0  0  0  0  0  0  0
    5.4641   -3.0600    0.0000 C   0  0  0  0  0  0  0  0  0  0  0  0
    6.9939   -2.5600    0.0000 C   0  0  0  0  0  0  0  0  0  0  0  0
    3.7320   -3.0600    0.0000 C   0  0  0  0  0  0  0  0  0  0  0  0
    2.3291    1.7500    0.0000 H   0  0  0  0  0  0  0  0  0  0  0  0
    4.3426    0.8323    0.0000 H   0  0  0  0  0  0  0  0  0  0  0  0
    3.9441    1.5226    0.0000 H   0  0  0  0  0  0  0  0  0  0  0  0
    3.1215    0.0477    0.0000 H   0  0  0  0  0  0  0  0  0  0  0  0
    3.5200   -0.6426    0.0000 H   0  0  0  0  0  0  0  0  0  0  0  0
    3.4766    2.3323    0.0000 H   0  0  0  0  0  0  0  0  0  0  0  0
    3.0781    3.0226    0.0000 H   0  0  0  0  0  0  0  0  0  0  0  0
    1.6900    1.4769    0.0000 H   0  0  0  0  0  0  0  0  0  0  0  0
    1.4631    0.6300    0.0000 H   0  0  0  0  0  0  0  0  0  0  0  0
    2.3100    0.4031    0.0000 H   0  0  0  0  0  0  0  0  0  0  0  0
    5.1350   -0.2500    0.0000 H   0  0  0  0  0  0  0  0  0  0  0  0
    6.6029   -1.1660    0.0000 H   0  0  0  0  0  0  0  0  0  0  0  0
    2.0000    3.5600    0.0000 H   0  0  0  0  0  0  0  0  0  0  0  0
    7.6139   -2.5600    0.0000 H   0  0  0  0  0  0  0  0  0  0  0  0
    3.1951   -3.3700    0.0000 H   0  0  0  0  0  0  0  0  0  0  0  0
  1 10  1  0  0  0  0
  1 29  1  0  0  0  0
  2  9  1  0  0  0  0
  2 12  1  0  0  0  0
  2 27  1  0  0  0  0
  3 13  1  0  0  0  0
  3 15  1  0  0  0  0
  3 28  1  0  0  0  0
  4 12  2  0  0  0  0
  4 16  1  0  0  0  0
  5 14  1  0  0  0  0
  5 15  2  0  0  0  0
  6 14  1  0  0  0  0
  6 16  2  0  0  0  0
  7  8  1  0  0  0  0
  7 10  1  0  0  0  0
  7 11  1  0  0  0  0
  7 17  1  0  0  0  0
  8  9  1  0  0  0  0
  8 18  1  0  0  0  0
  8 19  1  0  0  0  0
  9 20  1  0  0  0  0
  9 21  1  0  0  0  0
 10 22  1  0  0  0  0
 10 23  1  0  0  0  0
 11 24  1  0  0  0  0
 11 25  1  0  0  0  0
 11 26  1  0  0  0  0
 12 13  1  0  0  0  0
 13 14  2  0  0  0  0
 15 30  1  0  0  0  0
 16 31  1  0  0  0  0
M  END
> <PUBCHEM_COMPOUND_CID>
32021

> <PUBCHEM_COMPOUND_CANONICALIZED>
1

> <PUBCHEM_CACTVS_COMPLEXITY>
215

> <PUBCHEM_CACTVS_HBOND_ACCEPTOR>
5

> <PUBCHEM_CACTVS_HBOND_DONOR>
3

> <PUBCHEM_CACTVS_ROTATABLE_BOND>
5

> <PUBCHEM_CACTVS_SUBSKEYS>
AAADccBzoAAAAAAAAAAAAAAAAAAAAWAAAAAsAAAAAAAAAFgB+AAAHgAQCAAADQjhlwYH8L7JkgCgAQZhZACAgC2REKABUaAoVBCAWABAyEAURAgMEALAACAgAAAIAAAAAAAAAAAAAAAAAAAAAAAAAAAAAA==

> <PUBCHEM_IUPAC_OPENEYE_NAME>
2-methyl-4-(7H-purin-6-ylamino)butan-1-ol

> <PUBCHEM_IUPAC_CAS_NAME>
2-methyl-4-(7H-purin-6-ylamino)-1-butanol

> <PUBCHEM_IUPAC_NAME_MARKUP>
2-methyl-4-(7<I>H</I>-purin-6-ylamino)butan-1-ol

> <PUBCHEM_IUPAC_NAME>
2-methyl-4-(7H-purin-6-ylamino)butan-1-ol

> <PUBCHEM_IUPAC_SYSTEMATIC_NAME>
2-methyl-4-(7H-purin-6-ylamino)butan-1-ol

> <PUBCHEM_IUPAC_TRADITIONAL_NAME>
2-methyl-4-(7H-purin-6-ylamino)butan-1-ol

> <PUBCHEM_IUPAC_INCHI>
InChI=1S/C10H15N5O/c1-7(4-16)2-3-11-9-8-10(13-5-12-8)15-6-14-9/h5-7,16H,2-4H2,1H3,(H2,11,12,13,14,15)

> <PUBCHEM_IUPAC_INCHIKEY>
XXFACTAYGKKOQB-UHFFFAOYSA-N

> <PUBCHEM_XLOGP3_AA>
0.9

> <PUBCHEM_EXACT_MASS>
221.12766

> <PUBCHEM_MOLECULAR_FORMULA>
C10H15N5O

> <PUBCHEM_MOLECULAR_WEIGHT>
221.26

> <PUBCHEM_OPENEYE_CAN_SMILES>
CC(CCNC1=NC=NC2=C1NC=N2)CO

> <PUBCHEM_OPENEYE_ISO_SMILES>
CC(CCNC1=NC=NC2=C1NC=N2)CO

> <PUBCHEM_CACTVS_TPSA>
86.7

> <PUBCHEM_MONOISOTOPIC_WEIGHT>
221.12766

> <PUBCHEM_TOTAL_CHARGE>
0

> <PUBCHEM_HEAVY_ATOM_COUNT>
16

> <PUBCHEM_ATOM_DEF_STEREO_COUNT>
0

> <PUBCHEM_ATOM_UDEF_STEREO_COUNT>
1

> <PUBCHEM_BOND_DEF_STEREO_COUNT>
0

> <PUBCHEM_BOND_UDEF_STEREO_COUNT>
0

> <PUBCHEM_ISOTOPIC_ATOM_COUNT>
0

> <PUBCHEM_COMPONENT_COUNT>
1

> <PUBCHEM_CACTVS_TAUTO_COUNT>
-1

> <PUBCHEM_COORDINATE_TYPE>
1
5
255

> <PUBCHEM_BONDANNOTATIONS>
12  13  8
13  14  8
3  13  8
3  15  8
4  12  8
4  16  8
5  14  8
5  15  8
6  14  8
6  16  8
7  11  3

$$$$
27982
  -OEChem-04052116402D

 13 12  0     0  0  0  0  0  0999 V2000
    6.0010    0.2315    0.0000 Cl  0  0  0  0  0  0  0  0  0  0  0  0
    3.4030   -0.2685    0.0000 P   0  0  0  0  0  0  0  0  0  0  0  0
    2.5369   -0.7685    0.0000 O   0  0  0  0  0  0  0  0  0  0  0  0
    2.9030    0.5976    0.0000 O   0  0  0  0  0  0  0  0  0  0  0  0
    3.9030   -1.1345    0.0000 O   0  0  0  0  0  0  0  0  0  0  0  0
    4.2690    0.2315    0.0000 C   0  0  0  0  0  0  0  0  0  0  0  0
    5.1350   -0.2685    0.0000 C   0  0  0  0  0  0  0  0  0  0  0  0
    4.6675    0.7065    0.0000 H   0  0  0  0  0  0  0  0  0  0  0  0
    3.8705    0.7065    0.0000 H   0  0  0  0  0  0  0  0  0  0  0  0
    4.7365   -0.7434    0.0000 H   0  0  0  0  0  0  0  0  0  0  0  0
    5.5335   -0.7434    0.0000 H   0  0  0  0  0  0  0  0  0  0  0  0
    2.0000   -0.4585    0.0000 H   0  0  0  0  0  0  0  0  0  0  0  0
    3.2130    1.1345    0.0000 H   0  0  0  0  0  0  0  0  0  0  0  0
  1  7  1  0  0  0  0
  2  3  1  0  0  0  0
  2  4  1  0  0  0  0
  2  5  2  0  0  0  0
  2  6  1  0  0  0  0
  3 12  1  0  0  0  0
  4 13  1  0  0  0  0
  6  7  1  0  0  0  0
  6  8  1  0  0  0  0
  6  9  1  0  0  0  0
  7 10  1  0  0  0  0
  7 11  1  0  0  0  0
M  END
> <PUBCHEM_COMPOUND_CID>
27982

> <PUBCHEM_COMPOUND_CANONICALIZED>
1

> <PUBCHEM_CACTVS_COMPLEXITY>
86.9

> <PUBCHEM_CACTVS_HBOND_ACCEPTOR>
3

> <PUBCHEM_CACTVS_HBOND_DONOR>
2

> <PUBCHEM_CACTVS_ROTATABLE_BOND>
2

> <PUBCHEM_CACTVS_SUBSKEYS>
AAADcYBAMAIEAAAAAAAAAAAAAAAAAAAAAAAAAAAAAAAAAAAAAAAAGAoACCAAAAOIAEAAAAAAABAAQAAAAIAAAAAAAAAAAAAAAAAAAAAAAAAAAAAAAAAAAAAAAAAAAAAAAAAAAAAAAAAAAAAAAAAAAAAAAA==

> <PUBCHEM_IUPAC_OPENEYE_NAME>
2-chloroethylphosphonic acid

> <PUBCHEM_IUPAC_CAS_NAME>
2-chloroethylphosphonic acid

> <PUBCHEM_IUPAC_NAME_MARKUP>
2-chloroethylphosphonic acid

> <PUBCHEM_IUPAC_NAME>
2-chloroethylphosphonic acid

> <PUBCHEM_IUPAC_SYSTEMATIC_NAME>
2-chloroethylphosphonic acid

> <PUBCHEM_IUPAC_TRADITIONAL_NAME>
2-chloroethylphosphonic acid

> <PUBCHEM_IUPAC_INCHI>
InChI=1S/C2H6ClO3P/c3-1-2-7(4,5)6/h1-2H2,(H2,4,5,6)

> <PUBCHEM_IUPAC_INCHIKEY>
UDPGUMQDCGORJQ-UHFFFAOYSA-N

> <PUBCHEM_XLOGP3_AA>
-1

> <PUBCHEM_EXACT_MASS>
143.974309

> <PUBCHEM_MOLECULAR_FORMULA>
C2H6ClO3P

> <PUBCHEM_MOLECULAR_WEIGHT>
144.49

> <PUBCHEM_OPENEYE_CAN_SMILES>
C(CCl)P(=O)(O)O

> <PUBCHEM_OPENEYE_ISO_SMILES>
C(CCl)P(=O)(O)O

> <PUBCHEM_CACTVS_TPSA>
57.5

> <PUBCHEM_MONOISOTOPIC_WEIGHT>
143.974309

> <PUBCHEM_TOTAL_CHARGE>
0

> <PUBCHEM_HEAVY_ATOM_COUNT>
7

> <PUBCHEM_ATOM_DEF_STEREO_COUNT>
0

> <PUBCHEM_ATOM_UDEF_STEREO_COUNT>
0

> <PUBCHEM_BOND_DEF_STEREO_COUNT>
0

> <PUBCHEM_BOND_UDEF_STEREO_COUNT>
0

> <PUBCHEM_ISOTOPIC_ATOM_COUNT>
0

> <PUBCHEM_COMPONENT_COUNT>
1

> <PUBCHEM_CACTVS_TAUTO_COUNT>
-1

> <PUBCHEM_COORDINATE_TYPE>
1
5
255

$$$$
26934
  -OEChem-04052116402D

 24 24  0     1  0  0  0  0  0999 V2000
    2.0000    1.0950    0.0000 O   0  0  0  0  0  0  0  0  0  0  0  0
    3.7320    2.0950    0.0000 N   0  0  0  0  0  0  0  0  0  0  0  0
    2.8660    0.5950    0.0000 C   0  0  2  0  0  0  0  0  0  0  0  0
    3.7320    1.0950    0.0000 C   0  0  1  0  0  0  0  0  0  0  0  0
    2.8660   -0.4050    0.0000 C   0  0  0  0  0  0  0  0  0  0  0  0
    4.5981    0.5950    0.0000 C   0  0  0  0  0  0  0  0  0  0  0  0
    2.0000   -0.9050    0.0000 C   0  0  0  0  0  0  0  0  0  0  0  0
    3.7320   -0.9050    0.0000 C   0  0  0  0  0  0  0  0  0  0  0  0
    2.0000   -1.9050    0.0000 C   0  0  0  0  0  0  0  0  0  0  0  0
    3.7320   -1.9050    0.0000 C   0  0  0  0  0  0  0  0  0  0  0  0
    2.8660   -2.4050    0.0000 C   0  0  0  0  0  0  0  0  0  0  0  0
    2.8660    1.2150    0.0000 H   0  0  0  0  0  0  0  0  0  0  0  0
    4.2690    1.4050    0.0000 H   0  0  0  0  0  0  0  0  0  0  0  0
    4.2881    0.0581    0.0000 H   0  0  0  0  0  0  0  0  0  0  0  0
    5.1350    0.2850    0.0000 H   0  0  0  0  0  0  0  0  0  0  0  0
    4.9081    1.1319    0.0000 H   0  0  0  0  0  0  0  0  0  0  0  0
    1.4631   -0.5950    0.0000 H   0  0  0  0  0  0  0  0  0  0  0  0
    4.2690   -0.5950    0.0000 H   0  0  0  0  0  0  0  0  0  0  0  0
    4.2690    2.4050    0.0000 H   0  0  0  0  0  0  0  0  0  0  0  0
    3.1951    2.4050    0.0000 H   0  0  0  0  0  0  0  0  0  0  0  0
    2.0000    1.7150    0.0000 H   0  0  0  0  0  0  0  0  0  0  0  0
    1.4631   -2.2150    0.0000 H   0  0  0  0  0  0  0  0  0  0  0  0
    4.2690   -2.2150    0.0000 H   0  0  0  0  0  0  0  0  0  0  0  0
    2.8660   -3.0250    0.0000 H   0  0  0  0  0  0  0  0  0  0  0  0
  3  1  1  6  0  0  0
  1 21  1  0  0  0  0
  4  2  1  6  0  0  0
  2 19  1  0  0  0  0
  2 20  1  0  0  0  0
  3  4  1  0  0  0  0
  3  5  1  0  0  0  0
  3 12  1  0  0  0  0
  4  6  1  0  0  0  0
  4 13  1  0  0  0  0
  5  7  2  0  0  0  0
  5  8  1  0  0  0  0
  6 14  1  0  0  0  0
  6 15  1  0  0  0  0
  6 16  1  0  0  0  0
  7  9  1  0  0  0  0
  7 17  1  0  0  0  0
  8 10  2  0  0  0  0
  8 18  1  0  0  0  0
  9 11  2  0  0  0  0
  9 22  1  0  0  0  0
 10 11  1  0  0  0  0
 10 23  1  0  0  0  0
 11 24  1  0  0  0  0
M  END
> <PUBCHEM_COMPOUND_CID>
26934

> <PUBCHEM_COMPOUND_CANONICALIZED>
1

> <PUBCHEM_CACTVS_COMPLEXITY>
110

> <PUBCHEM_CACTVS_HBOND_ACCEPTOR>
2

> <PUBCHEM_CACTVS_HBOND_DONOR>
2

> <PUBCHEM_CACTVS_ROTATABLE_BOND>
2

> <PUBCHEM_CACTVS_SUBSKEYS>
AAADccByIAAAAAAAAAAAAAAAAAAAAAAAAAAwAAAAAAAAAAABAAAAHgAQCAAADDzhmAYyAIBAAgCAAiBCAAACAAAgAAAIiIAACIgKNiKAkRGAcAAk0AEImAeQwKAOAAAAAAAAAAAAAAAAAAAAAAAAAAAAAA==

> <PUBCHEM_IUPAC_OPENEYE_NAME>
(1S,2R)-2-amino-1-phenyl-propan-1-ol

> <PUBCHEM_IUPAC_CAS_NAME>
(1S,2R)-2-amino-1-phenyl-1-propanol

> <PUBCHEM_IUPAC_NAME_MARKUP>
(1<I>S</I>,2<I>R</I>)-2-amino-1-phenylpropan-1-ol

> <PUBCHEM_IUPAC_NAME>
(1S,2R)-2-amino-1-phenylpropan-1-ol

> <PUBCHEM_IUPAC_SYSTEMATIC_NAME>
(1S,2R)-2-azanyl-1-phenyl-propan-1-ol

> <PUBCHEM_IUPAC_TRADITIONAL_NAME>
(1S,2R)-2-amino-1-phenyl-propan-1-ol

> <PUBCHEM_IUPAC_INCHI>
InChI=1S/C9H13NO/c1-7(10)9(11)8-5-3-2-4-6-8/h2-7,9,11H,10H2,1H3/t7-,9-/m1/s1

> <PUBCHEM_IUPAC_INCHIKEY>
DLNKOYKMWOXYQA-VXNVDRBHSA-N

> <PUBCHEM_XLOGP3>
0.8

> <PUBCHEM_EXACT_MASS>
151.099714

> <PUBCHEM_MOLECULAR_FORMULA>
C9H13NO

> <PUBCHEM_MOLECULAR_WEIGHT>
151.21

> <PUBCHEM_OPENEYE_CAN_SMILES>
CC(C(C1=CC=CC=C1)O)N

> <PUBCHEM_OPENEYE_ISO_SMILES>
C[C@H]([C@H](C1=CC=CC=C1)O)N

> <PUBCHEM_CACTVS_TPSA>
46.2

> <PUBCHEM_MONOISOTOPIC_WEIGHT>
151.099714

> <PUBCHEM_TOTAL_CHARGE>
0

> <PUBCHEM_HEAVY_ATOM_COUNT>
11

> <PUBCHEM_ATOM_DEF_STEREO_COUNT>
2

> <PUBCHEM_ATOM_UDEF_STEREO_COUNT>
0

> <PUBCHEM_BOND_DEF_STEREO_COUNT>
0

> <PUBCHEM_BOND_UDEF_STEREO_COUNT>
0

> <PUBCHEM_ISOTOPIC_ATOM_COUNT>
0

> <PUBCHEM_COMPONENT_COUNT>
1

> <PUBCHEM_CACTVS_TAUTO_COUNT>
-1

> <PUBCHEM_COORDINATE_TYPE>
1
5
255

> <PUBCHEM_BONDANNOTATIONS>
3  1  6
10  11  8
4  2  6
5  7  8
5  8  8
7  9  8
8  10  8
9  11  8

$$$$
26229
  -OEChem-04052116402D

 19 19  0     0  0  0  0  0  0999 V2000
    2.8660   -3.3100    0.0000 Cl  0  0  0  0  0  0  0  0  0  0  0  0
    2.8660    0.6900    0.0000 O   0  0  0  0  0  0  0  0  0  0  0  0
    4.5981    2.6900    0.0000 O   0  0  0  0  0  0  0  0  0  0  0  0
    2.8660    2.6900    0.0000 O   0  0  0  0  0  0  0  0  0  0  0  0
    2.8660   -0.3100    0.0000 C   0  0  0  0  0  0  0  0  0  0  0  0
    3.7320   -0.8100    0.0000 C   0  0  0  0  0  0  0  0  0  0  0  0
    2.0000   -0.8100    0.0000 C   0  0  0  0  0  0  0  0  0  0  0  0
    3.7320    1.1900    0.0000 C   0  0  0  0  0  0  0  0  0  0  0  0
    3.7320   -1.8100    0.0000 C   0  0  0  0  0  0  0  0  0  0  0  0
    2.0000   -1.8100    0.0000 C   0  0  0  0  0  0  0  0  0  0  0  0
    2.8660   -2.3100    0.0000 C   0  0  0  0  0  0  0  0  0  0  0  0
    3.7320    2.1900    0.0000 C   0  0  0  0  0  0  0  0  0  0  0  0
    4.2690   -0.5000    0.0000 H   0  0  0  0  0  0  0  0  0  0  0  0
    1.4631   -0.5000    0.0000 H   0  0  0  0  0  0  0  0  0  0  0  0
    3.9441    0.6074    0.0000 H   0  0  0  0  0  0  0  0  0  0  0  0
    4.3426    1.2977    0.0000 H   0  0  0  0  0  0  0  0  0  0  0  0
    4.2690   -2.1200    0.0000 H   0  0  0  0  0  0  0  0  0  0  0  0
    1.4631   -2.1200    0.0000 H   0  0  0  0  0  0  0  0  0  0  0  0
    4.5981    3.3100    0.0000 H   0  0  0  0  0  0  0  0  0  0  0  0
  1 11  1  0  0  0  0
  2  5  1  0  0  0  0
  2  8  1  0  0  0  0
  3 12  1  0  0  0  0
  3 19  1  0  0  0  0
  4 12  2  0  0  0  0
  5  6  2  0  0  0  0
  5  7  1  0  0  0  0
  6  9  1  0  0  0  0
  6 13  1  0  0  0  0
  7 10  2  0  0  0  0
  7 14  1  0  0  0  0
  8 12  1  0  0  0  0
  8 15  1  0  0  0  0
  8 16  1  0  0  0  0
  9 11  2  0  0  0  0
  9 17  1  0  0  0  0
 10 11  1  0  0  0  0
 10 18  1  0  0  0  0
M  END
> <PUBCHEM_COMPOUND_CID>
26229

> <PUBCHEM_COMPOUND_CANONICALIZED>
1

> <PUBCHEM_CACTVS_COMPLEXITY>
152

> <PUBCHEM_CACTVS_HBOND_ACCEPTOR>
3

> <PUBCHEM_CACTVS_HBOND_DONOR>
1

> <PUBCHEM_CACTVS_ROTATABLE_BOND>
3

> <PUBCHEM_CACTVS_SUBSKEYS>
AAADcYBwMAAEAAAAAAAAAAAAAAAAAAAAAAAwAAAAAAAAAAABAAAAGgIACAAACAagkCIwDoAABgCIACDSCAICCAAgJQAIiABGCogNJiKFMx6COCCkwBELqAeAQAAAACAAAAAAAAAAQAAAAAAAAAAAAAAAAA==

> <PUBCHEM_IUPAC_OPENEYE_NAME>
2-(4-chlorophenoxy)acetic acid

> <PUBCHEM_IUPAC_CAS_NAME>
2-(4-chlorophenoxy)acetic acid

> <PUBCHEM_IUPAC_NAME_MARKUP>
2-(4-chlorophenoxy)acetic acid

> <PUBCHEM_IUPAC_NAME>
2-(4-chlorophenoxy)acetic acid

> <PUBCHEM_IUPAC_SYSTEMATIC_NAME>
2-(4-chloranylphenoxy)ethanoic acid

> <PUBCHEM_IUPAC_TRADITIONAL_NAME>
2-(4-chlorophenoxy)acetic acid

> <PUBCHEM_IUPAC_INCHI>
InChI=1S/C8H7ClO3/c9-6-1-3-7(4-2-6)12-5-8(10)11/h1-4H,5H2,(H,10,11)

> <PUBCHEM_IUPAC_INCHIKEY>
SODPIMGUZLOIPE-UHFFFAOYSA-N

> <PUBCHEM_XLOGP3>
2.2

> <PUBCHEM_EXACT_MASS>
186.008372

> <PUBCHEM_MOLECULAR_FORMULA>
C8H7ClO3

> <PUBCHEM_MOLECULAR_WEIGHT>
186.59

> <PUBCHEM_OPENEYE_CAN_SMILES>
C1=CC(=CC=C1OCC(=O)O)Cl

> <PUBCHEM_OPENEYE_ISO_SMILES>
C1=CC(=CC=C1OCC(=O)O)Cl

> <PUBCHEM_CACTVS_TPSA>
46.5

> <PUBCHEM_MONOISOTOPIC_WEIGHT>
186.008372

> <PUBCHEM_TOTAL_CHARGE>
0

> <PUBCHEM_HEAVY_ATOM_COUNT>
12

> <PUBCHEM_ATOM_DEF_STEREO_COUNT>
0

> <PUBCHEM_ATOM_UDEF_STEREO_COUNT>
0

> <PUBCHEM_BOND_DEF_STEREO_COUNT>
0

> <PUBCHEM_BOND_UDEF_STEREO_COUNT>
0

> <PUBCHEM_ISOTOPIC_ATOM_COUNT>
0

> <PUBCHEM_COMPONENT_COUNT>
1

> <PUBCHEM_CACTVS_TAUTO_COUNT>
-1

> <PUBCHEM_COORDINATE_TYPE>
1
5
255

> <PUBCHEM_BONDANNOTATIONS>
10  11  8
5  6  8
5  7  8
6  9  8
7  10  8
9  11  8

$$$$
26170
  -OEChem-04052116402D

 35 34  0     0  0  0  0  0  0999 V2000
    3.9030    0.0000    0.0000 Cl  0  0  0  0  0  0  0  0  0  0  0  0
    0.0000    3.8100    0.0000 Cl  0  5  0  0  0  0  0  0  0  0  0  0
    3.9030    4.0000    0.0000 S   0  0  0  0  0  0  0  0  0  0  0  0
    5.6350    6.0000    0.0000 N   0  3  0  0  0  0  0  0  0  0  0  0
    4.7690    5.5000    0.0000 C   0  0  0  0  0  0  0  0  0  0  0  0
    6.5010    6.5000    0.0000 C   0  0  0  0  0  0  0  0  0  0  0  0
    5.1350    6.8660    0.0000 C   0  0  0  0  0  0  0  0  0  0  0  0
    4.7690    4.5000    0.0000 C   0  0  0  0  0  0  0  0  0  0  0  0
    6.5010    7.5000    0.0000 C   0  0  0  0  0  0  0  0  0  0  0  0
    4.1350    6.8660    0.0000 C   0  0  0  0  0  0  0  0  0  0  0  0
    3.9030    3.0000    0.0000 C   0  0  0  0  0  0  0  0  0  0  0  0
    4.7690    2.5000    0.0000 C   0  0  0  0  0  0  0  0  0  0  0  0
    3.0369    2.5000    0.0000 C   0  0  0  0  0  0  0  0  0  0  0  0
    4.7690    1.5000    0.0000 C   0  0  0  0  0  0  0  0  0  0  0  0
    3.0369    1.5000    0.0000 C   0  0  0  0  0  0  0  0  0  0  0  0
    3.9030    1.0000    0.0000 C   0  0  0  0  0  0  0  0  0  0  0  0
    5.9450    5.4631    0.0000 H   0  0  0  0  0  0  0  0  0  0  0  0
    4.5569    6.0826    0.0000 H   0  0  0  0  0  0  0  0  0  0  0  0
    4.1584    5.3923    0.0000 H   0  0  0  0  0  0  0  0  0  0  0  0
    6.7131    5.9174    0.0000 H   0  0  0  0  0  0  0  0  0  0  0  0
    7.1116    6.6077    0.0000 H   0  0  0  0  0  0  0  0  0  0  0  0
    5.7176    7.0781    0.0000 H   0  0  0  0  0  0  0  0  0  0  0  0
    5.0274    7.4766    0.0000 H   0  0  0  0  0  0  0  0  0  0  0  0
    4.9810    3.9174    0.0000 H   0  0  0  0  0  0  0  0  0  0  0  0
    5.3796    4.6077    0.0000 H   0  0  0  0  0  0  0  0  0  0  0  0
    7.1210    7.5000    0.0000 H   0  0  0  0  0  0  0  0  0  0  0  0
    6.5010    8.1200    0.0000 H   0  0  0  0  0  0  0  0  0  0  0  0
    5.8810    7.5000    0.0000 H   0  0  0  0  0  0  0  0  0  0  0  0
    4.1350    7.4860    0.0000 H   0  0  0  0  0  0  0  0  0  0  0  0
    3.5150    6.8660    0.0000 H   0  0  0  0  0  0  0  0  0  0  0  0
    4.1350    6.2460    0.0000 H   0  0  0  0  0  0  0  0  0  0  0  0
    5.3059    2.8100    0.0000 H   0  0  0  0  0  0  0  0  0  0  0  0
    2.5000    2.8100    0.0000 H   0  0  0  0  0  0  0  0  0  0  0  0
    5.3059    1.1900    0.0000 H   0  0  0  0  0  0  0  0  0  0  0  0
    2.5000    1.1900    0.0000 H   0  0  0  0  0  0  0  0  0  0  0  0
  1 16  1  0  0  0  0
  3  8  1  0  0  0  0
  3 11  1  0  0  0  0
  4  5  1  0  0  0  0
  4  6  1  0  0  0  0
  4  7  1  0  0  0  0
  4 17  1  0  0  0  0
  5  8  1  0  0  0  0
  5 18  1  0  0  0  0
  5 19  1  0  0  0  0
  6  9  1  0  0  0  0
  6 20  1  0  0  0  0
  6 21  1  0  0  0  0
  7 10  1  0  0  0  0
  7 22  1  0  0  0  0
  7 23  1  0  0  0  0
  8 24  1  0  0  0  0
  8 25  1  0  0  0  0
  9 26  1  0  0  0  0
  9 27  1  0  0  0  0
  9 28  1  0  0  0  0
 10 29  1  0  0  0  0
 10 30  1  0  0  0  0
 10 31  1  0  0  0  0
 11 12  2  0  0  0  0
 11 13  1  0  0  0  0
 12 14  1  0  0  0  0
 12 32  1  0  0  0  0
 13 15  2  0  0  0  0
 13 33  1  0  0  0  0
 14 16  2  0  0  0  0
 14 34  1  0  0  0  0
 15 16  1  0  0  0  0
 15 35  1  0  0  0  0
M  CHG  2   2  -1   4   1
M  END
> <PUBCHEM_COMPOUND_CID>
26170

> <PUBCHEM_COMPOUND_CANONICALIZED>
1

> <PUBCHEM_CACTVS_COMPLEXITY>
154

> <PUBCHEM_CACTVS_HBOND_ACCEPTOR>
2

> <PUBCHEM_CACTVS_HBOND_DONOR>
1

> <PUBCHEM_CACTVS_ROTATABLE_BOND>
6

> <PUBCHEM_CACTVS_SUBSKEYS>
AAADceByAABGAAAAAAAAAAAAAAAAAAAAAAAwAAAAAAAAAAABAAAAHAYQAAAACALFUCSyAYPAAAiAACBCAAACAAAgDRAIiJgIAogIICKhExCAIAAgkACoiAcAAAAAAAIAAAAAAAAABAAAAAAAAAAAAAAAAA==

> <PUBCHEM_IUPAC_OPENEYE_NAME>
2-(4-chlorophenyl)sulfanylethyl-diethyl-ammonium;chloride

> <PUBCHEM_IUPAC_CAS_NAME>
2-[(4-chlorophenyl)thio]ethyl-diethylammonium;chloride

> <PUBCHEM_IUPAC_NAME_MARKUP>
2-(4-chlorophenyl)sulfanylethyl-diethylazanium;chloride

> <PUBCHEM_IUPAC_NAME>
2-(4-chlorophenyl)sulfanylethyl-diethylazanium;chloride

> <PUBCHEM_IUPAC_SYSTEMATIC_NAME>
2-(4-chlorophenyl)sulfanylethyl-diethyl-azanium;chloride

> <PUBCHEM_IUPAC_TRADITIONAL_NAME>
2-[(4-chlorophenyl)thio]ethyl-diethyl-ammonium;chloride

> <PUBCHEM_IUPAC_INCHI>
InChI=1S/C12H18ClNS.ClH/c1-3-14(4-2)9-10-15-12-7-5-11(13)6-8-12;/h5-8H,3-4,9-10H2,1-2H3;1H

> <PUBCHEM_IUPAC_INCHIKEY>
RPNMGUBLKCLAEK-UHFFFAOYSA-N

> <PUBCHEM_EXACT_MASS>
279.061526

> <PUBCHEM_MOLECULAR_FORMULA>
C12H19Cl2NS

> <PUBCHEM_MOLECULAR_WEIGHT>
280.3

> <PUBCHEM_OPENEYE_CAN_SMILES>
CC[NH+](CC)CCSC1=CC=C(C=C1)Cl.[Cl-]

> <PUBCHEM_OPENEYE_ISO_SMILES>
CC[NH+](CC)CCSC1=CC=C(C=C1)Cl.[Cl-]

> <PUBCHEM_CACTVS_TPSA>
29.7

> <PUBCHEM_MONOISOTOPIC_WEIGHT>
279.061526

> <PUBCHEM_TOTAL_CHARGE>
0

> <PUBCHEM_HEAVY_ATOM_COUNT>
16

> <PUBCHEM_ATOM_DEF_STEREO_COUNT>
0

> <PUBCHEM_ATOM_UDEF_STEREO_COUNT>
0

> <PUBCHEM_BOND_DEF_STEREO_COUNT>
0

> <PUBCHEM_BOND_UDEF_STEREO_COUNT>
0

> <PUBCHEM_ISOTOPIC_ATOM_COUNT>
0

> <PUBCHEM_COMPONENT_COUNT>
2

> <PUBCHEM_CACTVS_TAUTO_COUNT>
-1

> <PUBCHEM_COORDINATE_TYPE>
1
5
255

> <PUBCHEM_BONDANNOTATIONS>
11  12  8
11  13  8
12  14  8
13  15  8
14  16  8
15  16  8

$$$$
25572
  -OEChem-04052116402D

 35 37  0     1  0  0  0  0  0999 V2000
    2.3100    1.3170    0.0000 O   0  0  0  0  0  0  0  0  0  0  0  0
    3.3100   -2.6830    0.0000 O   0  0  0  0  0  0  0  0  0  0  0  0
    5.8100    0.4510    0.0000 N   0  0  0  0  0  0  0  0  0  0  0  0
    5.8100    2.1830    0.0000 N   0  0  0  0  0  0  0  0  0  0  0  0
    3.3100    2.3170    0.0000 C   0  0  0  0  0  0  0  0  0  0  0  0
    3.8100    3.1830    0.0000 C   0  0  0  0  0  0  0  0  0  0  0  0
    2.8100    3.1830    0.0000 C   0  0  0  0  0  0  0  0  0  0  0  0
    3.3100    1.3170    0.0000 C   0  0  3  0  0  0  0  0  0  0  0  0
    3.3100    0.3170    0.0000 C   0  0  0  0  0  0  0  0  0  0  0  0
    4.3100    1.3170    0.0000 C   0  0  0  0  0  0  0  0  0  0  0  0
    4.1760   -0.1830    0.0000 C   0  0  0  0  0  0  0  0  0  0  0  0
    2.4440   -0.1830    0.0000 C   0  0  0  0  0  0  0  0  0  0  0  0
    4.8100    0.4510    0.0000 C   0  0  0  0  0  0  0  0  0  0  0  0
    4.8100    2.1830    0.0000 C   0  0  0  0  0  0  0  0  0  0  0  0
    4.1760   -1.1830    0.0000 C   0  0  0  0  0  0  0  0  0  0  0  0
    2.4440   -1.1830    0.0000 C   0  0  0  0  0  0  0  0  0  0  0  0
    3.3100   -1.6830    0.0000 C   0  0  0  0  0  0  0  0  0  0  0  0
    6.3100    1.3170    0.0000 C   0  0  0  0  0  0  0  0  0  0  0  0
    2.4440   -3.1830    0.0000 C   0  0  0  0  0  0  0  0  0  0  0  0
    3.9089    2.1565    0.0000 H   0  0  0  0  0  0  0  0  0  0  0  0
    4.3926    2.9710    0.0000 H   0  0  0  0  0  0  0  0  0  0  0  0
    3.9177    3.7936    0.0000 H   0  0  0  0  0  0  0  0  0  0  0  0
    2.7023    3.7936    0.0000 H   0  0  0  0  0  0  0  0  0  0  0  0
    2.2274    2.9710    0.0000 H   0  0  0  0  0  0  0  0  0  0  0  0
    2.0000    1.8539    0.0000 H   0  0  0  0  0  0  0  0  0  0  0  0
    4.7130    0.1270    0.0000 H   0  0  0  0  0  0  0  0  0  0  0  0
    1.9070    0.1270    0.0000 H   0  0  0  0  0  0  0  0  0  0  0  0
    4.5000   -0.0860    0.0000 H   0  0  0  0  0  0  0  0  0  0  0  0
    4.5000    2.7200    0.0000 H   0  0  0  0  0  0  0  0  0  0  0  0
    4.7130   -1.4930    0.0000 H   0  0  0  0  0  0  0  0  0  0  0  0
    1.9070   -1.4930    0.0000 H   0  0  0  0  0  0  0  0  0  0  0  0
    6.9300    1.3170    0.0000 H   0  0  0  0  0  0  0  0  0  0  0  0
    2.1340   -2.6461    0.0000 H   0  0  0  0  0  0  0  0  0  0  0  0
    1.9070   -3.4930    0.0000 H   0  0  0  0  0  0  0  0  0  0  0  0
    2.7540   -3.7200    0.0000 H   0  0  0  0  0  0  0  0  0  0  0  0
  1  8  1  0  0  0  0
  1 25  1  0  0  0  0
  2 17  1  0  0  0  0
  2 19  1  0  0  0  0
  3 13  2  0  0  0  0
  3 18  1  0  0  0  0
  4 14  1  0  0  0  0
  4 18  2  0  0  0  0
  5  6  1  0  0  0  0
  5  7  1  0  0  0  0
  5  8  1  0  0  0  0
  5 20  1  0  0  0  0
  6  7  1  0  0  0  0
  6 21  1  0  0  0  0
  6 22  1  0  0  0  0
  7 23  1  0  0  0  0
  7 24  1  0  0  0  0
  8  9  1  0  0  0  0
  8 10  1  0  0  0  0
  9 11  2  0  0  0  0
  9 12  1  0  0  0  0
 10 13  1  0  0  0  0
 10 14  2  0  0  0  0
 11 15  1  0  0  0  0
 11 26  1  0  0  0  0
 12 16  2  0  0  0  0
 12 27  1  0  0  0  0
 13 28  1  0  0  0  0
 14 29  1  0  0  0  0
 15 17  2  0  0  0  0
 15 30  1  0  0  0  0
 16 17  1  0  0  0  0
 16 31  1  0  0  0  0
 18 32  1  0  0  0  0
 19 33  1  0  0  0  0
 19 34  1  0  0  0  0
 19 35  1  0  0  0  0
M  END
> <PUBCHEM_COMPOUND_CID>
25572

> <PUBCHEM_COMPOUND_CANONICALIZED>
1

> <PUBCHEM_CACTVS_COMPLEXITY>
295

> <PUBCHEM_CACTVS_HBOND_ACCEPTOR>
4

> <PUBCHEM_CACTVS_HBOND_DONOR>
1

> <PUBCHEM_CACTVS_ROTATABLE_BOND>
4

> <PUBCHEM_CACTVS_SUBSKEYS>
AAADceBzMAAAAAAAAAAAAAAAGAAAAAAAAAA8QAAAAAAAAAABwAAAHgAACAAADUTBmgY/lpYIFgCgAjBnZACCiCkxIKAJ2CAuTJiMLqLE+VqEdCguwBNI+CeQ4PwOoAAAAAAAAABAAAAAAAAAAAAAAAAAAA==

> <PUBCHEM_IUPAC_OPENEYE_NAME>
cyclopropyl-(4-methoxyphenyl)-pyrimidin-5-yl-methanol

> <PUBCHEM_IUPAC_CAS_NAME>
cyclopropyl-(4-methoxyphenyl)-(5-pyrimidinyl)methanol

> <PUBCHEM_IUPAC_NAME_MARKUP>
cyclopropyl-(4-methoxyphenyl)-pyrimidin-5-ylmethanol

> <PUBCHEM_IUPAC_NAME>
cyclopropyl-(4-methoxyphenyl)-pyrimidin-5-ylmethanol

> <PUBCHEM_IUPAC_SYSTEMATIC_NAME>
cyclopropyl-(4-methoxyphenyl)-pyrimidin-5-yl-methanol

> <PUBCHEM_IUPAC_TRADITIONAL_NAME>
cyclopropyl-(4-methoxyphenyl)-(5-pyrimidyl)methanol

> <PUBCHEM_IUPAC_INCHI>
InChI=1S/C15H16N2O2/c1-19-14-6-4-12(5-7-14)15(18,11-2-3-11)13-8-16-10-17-9-13/h4-11,18H,2-3H2,1H3

> <PUBCHEM_IUPAC_INCHIKEY>
HUTDUHSNJYTCAR-UHFFFAOYSA-N

> <PUBCHEM_XLOGP3_AA>
1.6

> <PUBCHEM_EXACT_MASS>
256.121178

> <PUBCHEM_MOLECULAR_FORMULA>
C15H16N2O2

> <PUBCHEM_MOLECULAR_WEIGHT>
256.3

> <PUBCHEM_OPENEYE_CAN_SMILES>
COC1=CC=C(C=C1)C(C2CC2)(C3=CN=CN=C3)O

> <PUBCHEM_OPENEYE_ISO_SMILES>
COC1=CC=C(C=C1)C(C2CC2)(C3=CN=CN=C3)O

> <PUBCHEM_CACTVS_TPSA>
55.2

> <PUBCHEM_MONOISOTOPIC_WEIGHT>
256.121178

> <PUBCHEM_TOTAL_CHARGE>
0

> <PUBCHEM_HEAVY_ATOM_COUNT>
19

> <PUBCHEM_ATOM_DEF_STEREO_COUNT>
0

> <PUBCHEM_ATOM_UDEF_STEREO_COUNT>
1

> <PUBCHEM_BOND_DEF_STEREO_COUNT>
0

> <PUBCHEM_BOND_UDEF_STEREO_COUNT>
0

> <PUBCHEM_ISOTOPIC_ATOM_COUNT>
0

> <PUBCHEM_COMPONENT_COUNT>
1

> <PUBCHEM_CACTVS_TAUTO_COUNT>
-1

> <PUBCHEM_COORDINATE_TYPE>
1
5
255

> <PUBCHEM_BONDANNOTATIONS>
8  1  3
10  13  8
10  14  8
11  15  8
12  16  8
15  17  8
16  17  8
3  13  8
3  18  8
4  14  8
4  18  8
9  11  8
9  12  8

$$$$
24854
  -OEChem-04052116402D

  3  0  0     0  0  0  0  0  0999 V2000
    2.8660   -0.2500    0.0000 Ca  0  2  0  0  0  0  0  0  0  0  0  0
    3.7320    0.2500    0.0000 Cl  0  5  0  0  0  0  0  0  0  0  0  0
    2.0000    0.2500    0.0000 Cl  0  5  0  0  0  0  0  0  0  0  0  0
M  CHG  3   1   2   2  -1   3  -1
M  END
> <PUBCHEM_COMPOUND_CID>
24854

> <PUBCHEM_COMPOUND_CANONICALIZED>
1

> <PUBCHEM_CACTVS_COMPLEXITY>
2.8

> <PUBCHEM_CACTVS_HBOND_ACCEPTOR>
2

> <PUBCHEM_CACTVS_HBOND_DONOR>
0

> <PUBCHEM_CACTVS_ROTATABLE_BOND>
0

> <PUBCHEM_CACTVS_SUBSKEYS>
AAADcQAAAAAGAAgAAAAAAAAAAAAAAAAAAAAAAAAAAAAAAAAAAAAAAAAAAAAAAAAAAAAAAAAAAAAAAAAAAAAAAAAAAAAAAAAAAAAAAAAAAAAAAAAAAAAAAAAAAAAAAAAAAAAAAAAAAAAAAAAAAAAAAAAAAA==

> <PUBCHEM_IUPAC_OPENEYE_NAME>
calcium;dichloride

> <PUBCHEM_IUPAC_CAS_NAME>
calcium;dichloride

> <PUBCHEM_IUPAC_NAME_MARKUP>
calcium;dichloride

> <PUBCHEM_IUPAC_NAME>
calcium;dichloride

> <PUBCHEM_IUPAC_SYSTEMATIC_NAME>
calcium;dichloride

> <PUBCHEM_IUPAC_TRADITIONAL_NAME>
calcium;dichloride

> <PUBCHEM_IUPAC_INCHI>
InChI=1S/Ca.2ClH/h;2*1H/q+2;;/p-2

> <PUBCHEM_IUPAC_INCHIKEY>
UXVMQQNJUSDDNG-UHFFFAOYSA-L

> <PUBCHEM_EXACT_MASS>
109.900296

> <PUBCHEM_MOLECULAR_FORMULA>
CaCl2

> <PUBCHEM_MOLECULAR_WEIGHT>
110.98

> <PUBCHEM_OPENEYE_CAN_SMILES>
[Cl-].[Cl-].[Ca+2]

> <PUBCHEM_OPENEYE_ISO_SMILES>
[Cl-].[Cl-].[Ca+2]

> <PUBCHEM_CACTVS_TPSA>
0

> <PUBCHEM_MONOISOTOPIC_WEIGHT>
109.900296

> <PUBCHEM_TOTAL_CHARGE>
0

> <PUBCHEM_HEAVY_ATOM_COUNT>
3

> <PUBCHEM_ATOM_DEF_STEREO_COUNT>
0

> <PUBCHEM_ATOM_UDEF_STEREO_COUNT>
0

> <PUBCHEM_BOND_DEF_STEREO_COUNT>
0

> <PUBCHEM_BOND_UDEF_STEREO_COUNT>
0

> <PUBCHEM_ISOTOPIC_ATOM_COUNT>
0

> <PUBCHEM_COMPONENT_COUNT>
3

> <PUBCHEM_CACTVS_TAUTO_COUNT>
-1

> <PUBCHEM_NONSTANDARDBOND>
1  2  6
1  3  6

> <PUBCHEM_COORDINATE_TYPE>
1
5
255

$$$$
24844
  -OEChem-04052116402D

  9  4  0     0  0  0  0  0  0999 V2000
    0.8660    1.2500    0.0000 Ca  0  2  0  0  0  0  0  0  0  0  0  0
    1.7320    1.7500    0.0000 Cl  0  5  0  0  0  0  0  0  0  0  0  0
    0.0000    1.7500    0.0000 Cl  0  5  0  0  0  0  0  0  0  0  0  0
    4.2690    0.0000    0.0000 O   0  0  0  0  0  0  0  0  0  0  0  0
    4.2690    2.5000    0.0000 O   0  0  0  0  0  0  0  0  0  0  0  0
    4.8059    0.3100    0.0000 H   0  0  0  0  0  0  0  0  0  0  0  0
    3.7320    0.3100    0.0000 H   0  0  0  0  0  0  0  0  0  0  0  0
    4.8059    2.8100    0.0000 H   0  0  0  0  0  0  0  0  0  0  0  0
    3.7320    2.8100    0.0000 H   0  0  0  0  0  0  0  0  0  0  0  0
  4  6  1  0  0  0  0
  4  7  1  0  0  0  0
  5  8  1  0  0  0  0
  5  9  1  0  0  0  0
M  CHG  3   1   2   2  -1   3  -1
M  END
> <PUBCHEM_COMPOUND_CID>
24844

> <PUBCHEM_COMPOUND_CANONICALIZED>
1

> <PUBCHEM_CACTVS_COMPLEXITY>
2.8

> <PUBCHEM_CACTVS_HBOND_ACCEPTOR>
4

> <PUBCHEM_CACTVS_HBOND_DONOR>
2

> <PUBCHEM_CACTVS_ROTATABLE_BOND>
0

> <PUBCHEM_CACTVS_SUBSKEYS>
AAADcYAAMAAGAAgAAAAAAAAAAAAAAAAAAAAAAAAAAAAAAAAAAAAAAAAACAAAAAAAAAAAAAAAAAAAAAAAAAAAAAAAAAAAAAAAAAAAAAAAAAAAAAAAAAAAAAAAAAAAAAAAAAAAAAAAAAAAAAAAAAAAAAAAAA==

> <PUBCHEM_IUPAC_OPENEYE_NAME>
calcium;dichloride;dihydrate

> <PUBCHEM_IUPAC_CAS_NAME>
calcium;dichloride;dihydrate

> <PUBCHEM_IUPAC_NAME_MARKUP>
calcium;dichloride;dihydrate

> <PUBCHEM_IUPAC_NAME>
calcium;dichloride;dihydrate

> <PUBCHEM_IUPAC_SYSTEMATIC_NAME>
calcium;dichloride;dihydrate

> <PUBCHEM_IUPAC_TRADITIONAL_NAME>
calcium;dichloride;dihydrate

> <PUBCHEM_IUPAC_INCHI>
InChI=1S/Ca.2ClH.2H2O/h;2*1H;2*1H2/q+2;;;;/p-2

> <PUBCHEM_IUPAC_INCHIKEY>
LLSDKQJKOVVTOJ-UHFFFAOYSA-L

> <PUBCHEM_EXACT_MASS>
145.921426

> <PUBCHEM_MOLECULAR_FORMULA>
CaCl2H4O2

> <PUBCHEM_MOLECULAR_WEIGHT>
147.01

> <PUBCHEM_OPENEYE_CAN_SMILES>
O.O.[Cl-].[Cl-].[Ca+2]

> <PUBCHEM_OPENEYE_ISO_SMILES>
O.O.[Cl-].[Cl-].[Ca+2]

> <PUBCHEM_CACTVS_TPSA>
2

> <PUBCHEM_MONOISOTOPIC_WEIGHT>
145.921426

> <PUBCHEM_TOTAL_CHARGE>
0

> <PUBCHEM_HEAVY_ATOM_COUNT>
5

> <PUBCHEM_ATOM_DEF_STEREO_COUNT>
0

> <PUBCHEM_ATOM_UDEF_STEREO_COUNT>
0

> <PUBCHEM_BOND_DEF_STEREO_COUNT>
0

> <PUBCHEM_BOND_UDEF_STEREO_COUNT>
0

> <PUBCHEM_ISOTOPIC_ATOM_COUNT>
0

> <PUBCHEM_COMPONENT_COUNT>
5

> <PUBCHEM_CACTVS_TAUTO_COUNT>
-1

> <PUBCHEM_NONSTANDARDBOND>
1  2  7
1  3  7

> <PUBCHEM_COORDINATE_TYPE>
1
5
255

$$$$
24538
  -OEChem-04052116402D

 15 12  0     0  0  0  0  0  0999 V2000
    4.4768    0.8660    0.0000 S   0  0  0  0  0  0  0  0  0  0  0  0
    5.3429    1.3660    0.0000 O   0  0  0  0  0  0  0  0  0  0  0  0
    3.6108    0.3660    0.0000 O   0  0  0  0  0  0  0  0  0  0  0  0
    3.9768    1.7320    0.0000 O   0  0  0  0  0  0  0  0  0  0  0  0
    4.9768    0.0000    0.0000 O   0  0  0  0  0  0  0  0  0  0  0  0
    0.5369    2.4860    0.0000 N   0  0  0  0  0  0  0  0  0  0  0  0
    4.4768    4.3520    0.0000 N   0  0  0  0  0  0  0  0  0  0  0  0
    5.8798    1.0560    0.0000 H   0  0  0  0  0  0  0  0  0  0  0  0
    3.0739    0.6760    0.0000 H   0  0  0  0  0  0  0  0  0  0  0  0
    1.0739    2.7960    0.0000 H   0  0  0  0  0  0  0  0  0  0  0  0
    0.0000    2.7960    0.0000 H   0  0  0  0  0  0  0  0  0  0  0  0
    0.5369    1.8660    0.0000 H   0  0  0  0  0  0  0  0  0  0  0  0
    5.0138    4.6620    0.0000 H   0  0  0  0  0  0  0  0  0  0  0  0
    3.9399    4.6620    0.0000 H   0  0  0  0  0  0  0  0  0  0  0  0
    4.4768    3.7320    0.0000 H   0  0  0  0  0  0  0  0  0  0  0  0
  1  2  1  0  0  0  0
  1  3  1  0  0  0  0
  1  4  2  0  0  0  0
  1  5  2  0  0  0  0
  2  8  1  0  0  0  0
  3  9  1  0  0  0  0
  6 10  1  0  0  0  0
  6 11  1  0  0  0  0
  6 12  1  0  0  0  0
  7 13  1  0  0  0  0
  7 14  1  0  0  0  0
  7 15  1  0  0  0  0
M  END
> <PUBCHEM_COMPOUND_CID>
24538

> <PUBCHEM_COMPOUND_CANONICALIZED>
1

> <PUBCHEM_CACTVS_COMPLEXITY>
81.3

> <PUBCHEM_CACTVS_HBOND_ACCEPTOR>
6

> <PUBCHEM_CACTVS_HBOND_DONOR>
4

> <PUBCHEM_CACTVS_ROTATABLE_BOND>
0

> <PUBCHEM_CACTVS_SUBSKEYS>
AAADccADOABAAAAAAAAAAAAAAAAAAAAAAAAAAAAAAAAAAAAAAAAAAAAQCAAAAAAAAAAAAAAAAIAAAAAAADAAAAAAAAAAAAAAAAAAAAAAAAAAAAAAAAAAAAAAAAAAAAAAAAAAAAAAAAAAAAAAAAAAAAAAAA==

> <PUBCHEM_IUPAC_OPENEYE_NAME>
ammonia;sulfuric acid

> <PUBCHEM_IUPAC_CAS_NAME>
ammonia;sulfuric acid

> <PUBCHEM_IUPAC_NAME_MARKUP>
azane;sulfuric acid

> <PUBCHEM_IUPAC_NAME>
azane;sulfuric acid

> <PUBCHEM_IUPAC_SYSTEMATIC_NAME>
azane;sulfuric acid

> <PUBCHEM_IUPAC_TRADITIONAL_NAME>
ammonia;sulfuric acid

> <PUBCHEM_IUPAC_INCHI>
InChI=1S/2H3N.H2O4S/c;;1-5(2,3)4/h2*1H3;(H2,1,2,3,4)

> <PUBCHEM_IUPAC_INCHIKEY>
BFNBIHQBYMNNAN-UHFFFAOYSA-N

> <PUBCHEM_EXACT_MASS>
132.020478

> <PUBCHEM_MOLECULAR_FORMULA>
H8N2O4S

> <PUBCHEM_MOLECULAR_WEIGHT>
132.14

> <PUBCHEM_OPENEYE_CAN_SMILES>
N.N.OS(=O)(=O)O

> <PUBCHEM_OPENEYE_ISO_SMILES>
N.N.OS(=O)(=O)O

> <PUBCHEM_CACTVS_TPSA>
85

> <PUBCHEM_MONOISOTOPIC_WEIGHT>
132.020478

> <PUBCHEM_TOTAL_CHARGE>
0

> <PUBCHEM_HEAVY_ATOM_COUNT>
7

> <PUBCHEM_ATOM_DEF_STEREO_COUNT>
0

> <PUBCHEM_ATOM_UDEF_STEREO_COUNT>
0

> <PUBCHEM_BOND_DEF_STEREO_COUNT>
0

> <PUBCHEM_BOND_UDEF_STEREO_COUNT>
0

> <PUBCHEM_ISOTOPIC_ATOM_COUNT>
0

> <PUBCHEM_COMPONENT_COUNT>
3

> <PUBCHEM_CACTVS_TAUTO_COUNT>
-1

> <PUBCHEM_COORDINATE_TYPE>
1
5
255

$$$$
24470
  -OEChem-04052116402D

  5  3  0     0  0  0  0  0  0999 V2000
    0.6160    0.0000    0.0000 Ag  0  3  0  0  0  0  0  0  0  0  0  0
    0.0000    4.0000    0.0000 O   0  5  0  0  0  0  0  0  0  0  0  0
    0.8660    2.5000    0.0000 O   0  5  0  0  0  0  0  0  0  0  0  0
    1.7320    4.0000    0.0000 O   0  0  0  0  0  0  0  0  0  0  0  0
    0.8660    3.5000    0.0000 N   0  3  0  0  0  0  0  0  0  0  0  0
  2  5  1  0  0  0  0
  3  5  1  0  0  0  0
  4  5  2  0  0  0  0
M  CHG  4   1   1   2  -1   3  -1   5   1
M  END
> <PUBCHEM_COMPOUND_CID>
24470

> <PUBCHEM_COMPOUND_CANONICALIZED>
1

> <PUBCHEM_CACTVS_COMPLEXITY>
18.8

> <PUBCHEM_CACTVS_HBOND_ACCEPTOR>
3

> <PUBCHEM_CACTVS_HBOND_DONOR>
0

> <PUBCHEM_CACTVS_ROTATABLE_BOND>
0

> <PUBCHEM_CACTVS_SUBSKEYS>
AAADcQACMAAAAAAAAAQAAAAAAAAAAAAAAAAAAAAAAAAAAAAAAAAAAAAEAAAAAAAAAAAAAAAAQAABAAAAAQAAAAAAAAAAAAAAAAAAAAAAAAAAAAAAAAAAAAAAAAAAAAAAAAAAAAAAAAAAAAAAAAAAAAAAAA==

> <PUBCHEM_IUPAC_OPENEYE_NAME>
silver;nitrate

> <PUBCHEM_IUPAC_CAS_NAME>
silver;nitrate

> <PUBCHEM_IUPAC_NAME_MARKUP>
silver;nitrate

> <PUBCHEM_IUPAC_NAME>
silver;nitrate

> <PUBCHEM_IUPAC_SYSTEMATIC_NAME>
silver;nitrate

> <PUBCHEM_IUPAC_TRADITIONAL_NAME>
silver;nitrate

> <PUBCHEM_IUPAC_INCHI>
InChI=1S/Ag.NO3/c;2-1(3)4/q+1;-1

> <PUBCHEM_IUPAC_INCHIKEY>
SQGYOTSLMSWVJD-UHFFFAOYSA-N

> <PUBCHEM_EXACT_MASS>
168.89291

> <PUBCHEM_MOLECULAR_FORMULA>
AgNO3

> <PUBCHEM_MOLECULAR_WEIGHT>
169.873

> <PUBCHEM_OPENEYE_CAN_SMILES>
[N+](=O)([O-])[O-].[Ag+]

> <PUBCHEM_OPENEYE_ISO_SMILES>
[N+](=O)([O-])[O-].[Ag+]

> <PUBCHEM_CACTVS_TPSA>
62.9

> <PUBCHEM_MONOISOTOPIC_WEIGHT>
168.89291

> <PUBCHEM_TOTAL_CHARGE>
0

> <PUBCHEM_HEAVY_ATOM_COUNT>
5

> <PUBCHEM_ATOM_DEF_STEREO_COUNT>
0

> <PUBCHEM_ATOM_UDEF_STEREO_COUNT>
0

> <PUBCHEM_BOND_DEF_STEREO_COUNT>
0

> <PUBCHEM_BOND_UDEF_STEREO_COUNT>
0

> <PUBCHEM_ISOTOPIC_ATOM_COUNT>
0

> <PUBCHEM_COMPONENT_COUNT>
2

> <PUBCHEM_CACTVS_TAUTO_COUNT>
-1

> <PUBCHEM_COORDINATE_TYPE>
1
5
255

$$$$
24436
  -OEChem-04052116402D

  7  4  0     0  0  0  0  0  0999 V2000
    3.7320    0.0000    0.0000 S   0  0  0  0  0  0  0  0  0  0  0  0
    5.4641    0.0000    0.0000 Na  0  3  0  0  0  0  0  0  0  0  0  0
    2.0000   -0.0000    0.0000 Na  0  3  0  0  0  0  0  0  0  0  0  0
    4.5981    0.5000    0.0000 O   0  5  0  0  0  0  0  0  0  0  0  0
    2.8660   -0.5000    0.0000 O   0  5  0  0  0  0  0  0  0  0  0  0
    3.2320    0.8660    0.0000 O   0  0  0  0  0  0  0  0  0  0  0  0
    4.2320   -0.8660    0.0000 O   0  0  0  0  0  0  0  0  0  0  0  0
  1  4  1  0  0  0  0
  1  5  1  0  0  0  0
  1  6  2  0  0  0  0
  1  7  2  0  0  0  0
M  CHG  4   2   1   3   1   4  -1   5  -1
M  END
> <PUBCHEM_COMPOUND_CID>
24436

> <PUBCHEM_COMPOUND_CANONICALIZED>
1

> <PUBCHEM_CACTVS_COMPLEXITY>
62.2

> <PUBCHEM_CACTVS_HBOND_ACCEPTOR>
4

> <PUBCHEM_CACTVS_HBOND_DONOR>
0

> <PUBCHEM_CACTVS_ROTATABLE_BOND>
0

> <PUBCHEM_CACTVS_SUBSKEYS>
AAADcQAAODBAAAAAAAAAAAAAAAAAAAAAAAAAAAAAAAAAAAAAAAAAAAAAAAAAAAAAAAAAAAAAAAAAAAAAADAAAAAAAAAAAAAAAAAAAAAAAAAAAAAAAAAAAAAAAAAAAAAAAAAAAAAAAAAAAAAAAAAAAAAAAA==

> <PUBCHEM_IUPAC_OPENEYE_NAME>
disodium;sulfate

> <PUBCHEM_IUPAC_CAS_NAME>
disodium;sulfate

> <PUBCHEM_IUPAC_NAME_MARKUP>
disodium;sulfate

> <PUBCHEM_IUPAC_NAME>
disodium;sulfate

> <PUBCHEM_IUPAC_SYSTEMATIC_NAME>
disodium;sulfate

> <PUBCHEM_IUPAC_TRADITIONAL_NAME>
disodium;sulfate

> <PUBCHEM_IUPAC_INCHI>
InChI=1S/2Na.H2O4S/c;;1-5(2,3)4/h;;(H2,1,2,3,4)/q2*+1;/p-2

> <PUBCHEM_IUPAC_INCHIKEY>
PMZURENOXWZQFD-UHFFFAOYSA-L

> <PUBCHEM_EXACT_MASS>
141.931268

> <PUBCHEM_MOLECULAR_FORMULA>
Na2O4S

> <PUBCHEM_MOLECULAR_WEIGHT>
142.04

> <PUBCHEM_OPENEYE_CAN_SMILES>
[O-]S(=O)(=O)[O-].[Na+].[Na+]

> <PUBCHEM_OPENEYE_ISO_SMILES>
[O-]S(=O)(=O)[O-].[Na+].[Na+]

> <PUBCHEM_CACTVS_TPSA>
88.6

> <PUBCHEM_MONOISOTOPIC_WEIGHT>
141.931268

> <PUBCHEM_TOTAL_CHARGE>
0

> <PUBCHEM_HEAVY_ATOM_COUNT>
7

> <PUBCHEM_ATOM_DEF_STEREO_COUNT>
0

> <PUBCHEM_ATOM_UDEF_STEREO_COUNT>
0

> <PUBCHEM_BOND_DEF_STEREO_COUNT>
0

> <PUBCHEM_BOND_UDEF_STEREO_COUNT>
0

> <PUBCHEM_ISOTOPIC_ATOM_COUNT>
0

> <PUBCHEM_COMPONENT_COUNT>
3

> <PUBCHEM_CACTVS_TAUTO_COUNT>
-1

> <PUBCHEM_COORDINATE_TYPE>
1
5
255

$$$$
24434
  -OEChem-04052116402D

  5  3  0     0  0  0  0  0  0999 V2000
    0.6160    0.0000    0.0000 K   0  3  0  0  0  0  0  0  0  0  0  0
    0.0000    4.0000    0.0000 O   0  5  0  0  0  0  0  0  0  0  0  0
    0.8660    2.5000    0.0000 O   0  5  0  0  0  0  0  0  0  0  0  0
    1.7320    4.0000    0.0000 O   0  0  0  0  0  0  0  0  0  0  0  0
    0.8660    3.5000    0.0000 N   0  3  0  0  0  0  0  0  0  0  0  0
  2  5  1  0  0  0  0
  3  5  1  0  0  0  0
  4  5  2  0  0  0  0
M  CHG  4   1   1   2  -1   3  -1   5   1
M  END
> <PUBCHEM_COMPOUND_CID>
24434

> <PUBCHEM_COMPOUND_CANONICALIZED>
1

> <PUBCHEM_CACTVS_COMPLEXITY>
18.8

> <PUBCHEM_CACTVS_HBOND_ACCEPTOR>
3

> <PUBCHEM_CACTVS_HBOND_DONOR>
0

> <PUBCHEM_CACTVS_ROTATABLE_BOND>
0

> <PUBCHEM_CACTVS_SUBSKEYS>
AAADcQACMAAAQAAAAAAAAAAAAAAAAAAAAAAAAAAAAAAAAAAAAAAAAAAEAAAAAAAAAAAAAAAAQAABAAAAAQAAAAAAAAAAAAAAAAAAAAAAAAAAAAAAAAAAAAAAAAAAAAAAAAAAAAAAAAAAAAAAAAAAAAAAAA==

> <PUBCHEM_IUPAC_OPENEYE_NAME>
potassium;nitrate

> <PUBCHEM_IUPAC_CAS_NAME>
potassium;nitrate

> <PUBCHEM_IUPAC_NAME_MARKUP>
potassium;nitrate

> <PUBCHEM_IUPAC_NAME>
potassium;nitrate

> <PUBCHEM_IUPAC_SYSTEMATIC_NAME>
potassium;nitrate

> <PUBCHEM_IUPAC_TRADITIONAL_NAME>
potassium;nitrate

> <PUBCHEM_IUPAC_INCHI>
InChI=1S/K.NO3/c;2-1(3)4/q+1;-1

> <PUBCHEM_IUPAC_INCHIKEY>
FGIUAXJPYTZDNR-UHFFFAOYSA-N

> <PUBCHEM_EXACT_MASS>
100.951524

> <PUBCHEM_MOLECULAR_FORMULA>
KNO3

> <PUBCHEM_MOLECULAR_WEIGHT>
101.103

> <PUBCHEM_OPENEYE_CAN_SMILES>
[N+](=O)([O-])[O-].[K+]

> <PUBCHEM_OPENEYE_ISO_SMILES>
[N+](=O)([O-])[O-].[K+]

> <PUBCHEM_CACTVS_TPSA>
62.9

> <PUBCHEM_MONOISOTOPIC_WEIGHT>
100.951524

> <PUBCHEM_TOTAL_CHARGE>
0

> <PUBCHEM_HEAVY_ATOM_COUNT>
5

> <PUBCHEM_ATOM_DEF_STEREO_COUNT>
0

> <PUBCHEM_ATOM_UDEF_STEREO_COUNT>
0

> <PUBCHEM_BOND_DEF_STEREO_COUNT>
0

> <PUBCHEM_BOND_UDEF_STEREO_COUNT>
0

> <PUBCHEM_ISOTOPIC_ATOM_COUNT>
0

> <PUBCHEM_COMPONENT_COUNT>
2

> <PUBCHEM_CACTVS_TAUTO_COUNT>
-1

> <PUBCHEM_COORDINATE_TYPE>
1
5
255

$$$$
24268
  -OEChem-04052116402D

  5  3  0     0  0  0  0  0  0999 V2000
    0.6160    0.0000    0.0000 Na  0  3  0  0  0  0  0  0  0  0  0  0
    0.0000    4.0000    0.0000 O   0  5  0  0  0  0  0  0  0  0  0  0
    0.8660    2.5000    0.0000 O   0  5  0  0  0  0  0  0  0  0  0  0
    1.7320    4.0000    0.0000 O   0  0  0  0  0  0  0  0  0  0  0  0
    0.8660    3.5000    0.0000 N   0  3  0  0  0  0  0  0  0  0  0  0
  2  5  1  0  0  0  0
  3  5  1  0  0  0  0
  4  5  2  0  0  0  0
M  CHG  4   1   1   2  -1   3  -1   5   1
M  END
> <PUBCHEM_COMPOUND_CID>
24268

> <PUBCHEM_COMPOUND_CANONICALIZED>
1

> <PUBCHEM_CACTVS_COMPLEXITY>
18.8

> <PUBCHEM_CACTVS_HBOND_ACCEPTOR>
3

> <PUBCHEM_CACTVS_HBOND_DONOR>
0

> <PUBCHEM_CACTVS_ROTATABLE_BOND>
0

> <PUBCHEM_CACTVS_SUBSKEYS>
AAADcQACMCAAAAAAAAAAAAAAAAAAAAAAAAAAAAAAAAAAAAAAAAAAAAAEAAAAAAAAAAAAAAAAQAABAAAAAQAAAAAAAAAAAAAAAAAAAAAAAAAAAAAAAAAAAAAAAAAAAAAAAAAAAAAAAAAAAAAAAAAAAAAAAA==

> <PUBCHEM_IUPAC_OPENEYE_NAME>
sodium;nitrate

> <PUBCHEM_IUPAC_CAS_NAME>
sodium;nitrate

> <PUBCHEM_IUPAC_NAME_MARKUP>
sodium;nitrate

> <PUBCHEM_IUPAC_NAME>
sodium;nitrate

> <PUBCHEM_IUPAC_SYSTEMATIC_NAME>
sodium;nitrate

> <PUBCHEM_IUPAC_TRADITIONAL_NAME>
sodium;nitrate

> <PUBCHEM_IUPAC_INCHI>
InChI=1S/NO3.Na/c2-1(3)4;/q-1;+1

> <PUBCHEM_IUPAC_INCHIKEY>
VWDWKYIASSYTQR-UHFFFAOYSA-N

> <PUBCHEM_EXACT_MASS>
84.977587

> <PUBCHEM_MOLECULAR_FORMULA>
NNaO3

> <PUBCHEM_MOLECULAR_WEIGHT>
84.995

> <PUBCHEM_OPENEYE_CAN_SMILES>
[N+](=O)([O-])[O-].[Na+]

> <PUBCHEM_OPENEYE_ISO_SMILES>
[N+](=O)([O-])[O-].[Na+]

> <PUBCHEM_CACTVS_TPSA>
62.9

> <PUBCHEM_MONOISOTOPIC_WEIGHT>
84.977587

> <PUBCHEM_TOTAL_CHARGE>
0

> <PUBCHEM_HEAVY_ATOM_COUNT>
5

> <PUBCHEM_ATOM_DEF_STEREO_COUNT>
0

> <PUBCHEM_ATOM_UDEF_STEREO_COUNT>
0

> <PUBCHEM_BOND_DEF_STEREO_COUNT>
0

> <PUBCHEM_BOND_UDEF_STEREO_COUNT>
0

> <PUBCHEM_ISOTOPIC_ATOM_COUNT>
0

> <PUBCHEM_COMPONENT_COUNT>
2

> <PUBCHEM_CACTVS_TAUTO_COUNT>
-1

> <PUBCHEM_COORDINATE_TYPE>
1
5
255

$$$$
21330
  -OEChem-04052116402D

 31 32  0     0  0  0  0  0  0999 V2000
    7.1962   -0.2500    0.0000 S   0  0  0  0  0  0  0  0  0  0  0  0
    7.1962    1.7500    0.0000 O   0  0  0  0  0  0  0  0  0  0  0  0
    7.6962   -1.1160    0.0000 O   0  0  0  0  0  0  0  0  0  0  0  0
    6.6962   -1.1160    0.0000 O   0  0  0  0  0  0  0  0  0  0  0  0
    5.4641   -1.2500    0.0000 O   0  0  0  0  0  0  0  0  0  0  0  0
    4.5981    0.2500    0.0000 N   0  0  0  0  0  0  0  0  0  0  0  0
    8.0622    0.2500    0.0000 C   0  0  0  0  0  0  0  0  0  0  0  0
    6.3301    0.2500    0.0000 C   0  0  0  0  0  0  0  0  0  0  0  0
    8.0622    1.2500    0.0000 C   0  0  0  0  0  0  0  0  0  0  0  0
    6.3301    1.2500    0.0000 C   0  0  0  0  0  0  0  0  0  0  0  0
    5.4641   -0.2500    0.0000 C   0  0  0  0  0  0  0  0  0  0  0  0
    5.4641    1.7500    0.0000 C   0  0  0  0  0  0  0  0  0  0  0  0
    3.7320   -0.2500    0.0000 C   0  0  0  0  0  0  0  0  0  0  0  0
    2.8660    0.2500    0.0000 C   0  0  0  0  0  0  0  0  0  0  0  0
    3.7320   -1.2500    0.0000 C   0  0  0  0  0  0  0  0  0  0  0  0
    2.0000   -0.2500    0.0000 C   0  0  0  0  0  0  0  0  0  0  0  0
    2.8660   -1.7500    0.0000 C   0  0  0  0  0  0  0  0  0  0  0  0
    2.0000   -1.2500    0.0000 C   0  0  0  0  0  0  0  0  0  0  0  0
    8.2742   -0.3326    0.0000 H   0  0  0  0  0  0  0  0  0  0  0  0
    8.6728    0.3577    0.0000 H   0  0  0  0  0  0  0  0  0  0  0  0
    8.6728    1.1423    0.0000 H   0  0  0  0  0  0  0  0  0  0  0  0
    8.2742    1.8326    0.0000 H   0  0  0  0  0  0  0  0  0  0  0  0
    5.7741    2.2869    0.0000 H   0  0  0  0  0  0  0  0  0  0  0  0
    4.9272    2.0600    0.0000 H   0  0  0  0  0  0  0  0  0  0  0  0
    5.1541    1.2131    0.0000 H   0  0  0  0  0  0  0  0  0  0  0  0
    4.5981    0.8700    0.0000 H   0  0  0  0  0  0  0  0  0  0  0  0
    2.8660    0.8700    0.0000 H   0  0  0  0  0  0  0  0  0  0  0  0
    4.2690   -1.5600    0.0000 H   0  0  0  0  0  0  0  0  0  0  0  0
    1.4631    0.0600    0.0000 H   0  0  0  0  0  0  0  0  0  0  0  0
    2.8660   -2.3700    0.0000 H   0  0  0  0  0  0  0  0  0  0  0  0
    1.4631   -1.5600    0.0000 H   0  0  0  0  0  0  0  0  0  0  0  0
  1  3  2  0  0  0  0
  1  4  2  0  0  0  0
  1  7  1  0  0  0  0
  1  8  1  0  0  0  0
  2  9  1  0  0  0  0
  2 10  1  0  0  0  0
  5 11  2  0  0  0  0
  6 11  1  0  0  0  0
  6 13  1  0  0  0  0
  6 26  1  0  0  0  0
  7  9  1  0  0  0  0
  7 19  1  0  0  0  0
  7 20  1  0  0  0  0
  8 10  2  0  0  0  0
  8 11  1  0  0  0  0
  9 21  1  0  0  0  0
  9 22  1  0  0  0  0
 10 12  1  0  0  0  0
 12 23  1  0  0  0  0
 12 24  1  0  0  0  0
 12 25  1  0  0  0  0
 13 14  2  0  0  0  0
 13 15  1  0  0  0  0
 14 16  1  0  0  0  0
 14 27  1  0  0  0  0
 15 17  2  0  0  0  0
 15 28  1  0  0  0  0
 16 18  2  0  0  0  0
 16 29  1  0  0  0  0
 17 18  1  0  0  0  0
 17 30  1  0  0  0  0
 18 31  1  0  0  0  0
M  END
> <PUBCHEM_COMPOUND_CID>
21330

> <PUBCHEM_COMPOUND_CANONICALIZED>
1

> <PUBCHEM_CACTVS_COMPLEXITY>
455

> <PUBCHEM_CACTVS_HBOND_ACCEPTOR>
4

> <PUBCHEM_CACTVS_HBOND_DONOR>
1

> <PUBCHEM_CACTVS_ROTATABLE_BOND>
2

> <PUBCHEM_CACTVS_SUBSKEYS>
AAADccByOABAAAAAAAAAAAAAAAAAAAAAAAAwQAAAAAAAAAABAAAAHgQQAAAACAyl0AKywILABAqIACVSUHDCCAAhIhAIiAAAZMgIICLAkZGGIAhglADoyQcQAAAAAAAAAAAAAAAAAAAAAAAAAAAAAAAAAA==

> <PUBCHEM_IUPAC_OPENEYE_NAME>
6-methyl-4,4-dioxo-N-phenyl-2,3-dihydro-1,4-oxathiine-5-carboxamide

> <PUBCHEM_IUPAC_CAS_NAME>
6-methyl-4,4-dioxo-N-phenyl-2,3-dihydro-1,4-oxathiin-5-carboxamide

> <PUBCHEM_IUPAC_NAME_MARKUP>
6-methyl-4,4-dioxo-<I>N</I>-phenyl-2,3-dihydro-1,4-oxathiine-5-carboxamide

> <PUBCHEM_IUPAC_NAME>
6-methyl-4,4-dioxo-N-phenyl-2,3-dihydro-1,4-oxathiine-5-carboxamide

> <PUBCHEM_IUPAC_SYSTEMATIC_NAME>
6-methyl-4,4-bis(oxidanylidene)-N-phenyl-2,3-dihydro-1,4-oxathiine-5-carboxamide

> <PUBCHEM_IUPAC_TRADITIONAL_NAME>
4,4-diketo-6-methyl-N-phenyl-2,3-dihydro-1,4-oxathiin-5-carboxamide

> <PUBCHEM_IUPAC_INCHI>
InChI=1S/C12H13NO4S/c1-9-11(18(15,16)8-7-17-9)12(14)13-10-5-3-2-4-6-10/h2-6H,7-8H2,1H3,(H,13,14)

> <PUBCHEM_IUPAC_INCHIKEY>
AMEKQAFGQBKLKX-UHFFFAOYSA-N

> <PUBCHEM_XLOGP3>
0.7

> <PUBCHEM_EXACT_MASS>
267.056529

> <PUBCHEM_MOLECULAR_FORMULA>
C12H13NO4S

> <PUBCHEM_MOLECULAR_WEIGHT>
267.3

> <PUBCHEM_OPENEYE_CAN_SMILES>
CC1=C(S(=O)(=O)CCO1)C(=O)NC2=CC=CC=C2

> <PUBCHEM_OPENEYE_ISO_SMILES>
CC1=C(S(=O)(=O)CCO1)C(=O)NC2=CC=CC=C2

> <PUBCHEM_CACTVS_TPSA>
80.8

> <PUBCHEM_MONOISOTOPIC_WEIGHT>
267.056529

> <PUBCHEM_TOTAL_CHARGE>
0

> <PUBCHEM_HEAVY_ATOM_COUNT>
18

> <PUBCHEM_ATOM_DEF_STEREO_COUNT>
0

> <PUBCHEM_ATOM_UDEF_STEREO_COUNT>
0

> <PUBCHEM_BOND_DEF_STEREO_COUNT>
0

> <PUBCHEM_BOND_UDEF_STEREO_COUNT>
0

> <PUBCHEM_ISOTOPIC_ATOM_COUNT>
0

> <PUBCHEM_COMPONENT_COUNT>
1

> <PUBCHEM_CACTVS_TAUTO_COUNT>
-1

> <PUBCHEM_COORDINATE_TYPE>
1
5
255

> <PUBCHEM_BONDANNOTATIONS>
13  14  8
13  15  8
14  16  8
15  17  8
16  18  8
17  18  8

$$$$
20933
  -OEChem-04052116402D

 44 44  0     1  0  0  0  0  0999 V2000
    9.2365    0.3843    0.0000 S   0  0  0  0  0  0  0  0  0  0  0  0
    4.7153    3.8790    0.0000 Na  0  3  0  0  0  0  0  0  0  0  0  0
    9.1854   -3.8790    0.0000 Na  0  3  0  0  0  0  0  0  0  0  0  0
    6.5715   -1.6374    0.0000 O   0  0  0  0  0  0  0  0  0  0  0  0
    8.8764   -2.9280    0.0000 O   0  5  0  0  0  0  0  0  0  0  0  0
   10.5236   -2.3927    0.0000 O   0  0  0  0  0  0  0  0  0  0  0  0
    5.3442   -0.4343    0.0000 O   0  0  0  0  0  0  0  0  0  0  0  0
    4.4545    2.9136    0.0000 O   0  5  0  0  0  0  0  0  0  0  0  0
    6.1266    2.4619    0.0000 O   0  0  0  0  0  0  0  0  0  0  0  0
    8.2854   -0.9247    0.0000 N   0  0  0  0  0  0  0  0  0  0  0  0
    6.5715    0.7880    0.0000 N   0  0  0  0  0  0  0  0  0  0  0  0
    8.2854    0.0753    0.0000 C   0  0  1  0  0  0  0  0  0  0  0  0
    9.8242   -0.4247    0.0000 C   0  0  0  0  0  0  0  0  0  0  0  0
    9.2365   -1.2338    0.0000 C   0  0  2  0  0  0  0  0  0  0  0  0
    7.2771    0.0794    0.0000 C   0  0  1  0  0  0  0  0  0  0  0  0
    7.2771   -0.9289    0.0000 C   0  0  0  0  0  0  0  0  0  0  0  0
   10.6333    0.1630    0.0000 C   0  0  0  0  0  0  0  0  0  0  0  0
   10.6333   -1.0125    0.0000 C   0  0  0  0  0  0  0  0  0  0  0  0
    9.5455   -2.1848    0.0000 C   0  0  0  0  0  0  0  0  0  0  0  0
    5.6050    0.5311    0.0000 C   0  0  0  0  0  0  0  0  0  0  0  0
    4.8994    1.2397    0.0000 C   0  0  3  0  0  0  0  0  0  0  0  0
    3.9329    0.9828    0.0000 C   0  0  0  0  0  0  0  0  0  0  0  0
    5.1602    2.2051    0.0000 C   0  0  0  0  0  0  0  0  0  0  0  0
    3.2273    1.6914    0.0000 C   0  0  0  0  0  0  0  0  0  0  0  0
    3.6721    0.0175    0.0000 C   0  0  0  0  0  0  0  0  0  0  0  0
    2.2608    1.4346    0.0000 C   0  0  0  0  0  0  0  0  0  0  0  0
    2.7056   -0.2394    0.0000 C   0  0  0  0  0  0  0  0  0  0  0  0
    2.0000    0.4692    0.0000 C   0  0  0  0  0  0  0  0  0  0  0  0
    8.1542    0.9151    0.0000 H   0  0  0  0  0  0  0  0  0  0  0  0
    8.7981   -1.6722    0.0000 H   0  0  0  0  0  0  0  0  0  0  0  0
    6.7041   -0.1573    0.0000 H   0  0  0  0  0  0  0  0  0  0  0  0
   10.9977   -0.3386    0.0000 H   0  0  0  0  0  0  0  0  0  0  0  0
   11.1349    0.5275    0.0000 H   0  0  0  0  0  0  0  0  0  0  0  0
   10.2688    0.6646    0.0000 H   0  0  0  0  0  0  0  0  0  0  0  0
   10.2688   -1.5141    0.0000 H   0  0  0  0  0  0  0  0  0  0  0  0
   11.1349   -1.3770    0.0000 H   0  0  0  0  0  0  0  0  0  0  0  0
   10.9977   -0.5109    0.0000 H   0  0  0  0  0  0  0  0  0  0  0  0
    6.7332    1.3865    0.0000 H   0  0  0  0  0  0  0  0  0  0  0  0
    4.4619    1.6790    0.0000 H   0  0  0  0  0  0  0  0  0  0  0  0
    3.3890    2.2900    0.0000 H   0  0  0  0  0  0  0  0  0  0  0  0
    4.1096   -0.4219    0.0000 H   0  0  0  0  0  0  0  0  0  0  0  0
    1.8233    1.8739    0.0000 H   0  0  0  0  0  0  0  0  0  0  0  0
    2.5440   -0.8379    0.0000 H   0  0  0  0  0  0  0  0  0  0  0  0
    1.4008    0.3099    0.0000 H   0  0  0  0  0  0  0  0  0  0  0  0
  1 12  1  0  0  0  0
  1 13  1  0  0  0  0
  4 16  2  0  0  0  0
  5 19  1  0  0  0  0
  6 19  2  0  0  0  0
  7 20  2  0  0  0  0
  8 23  1  0  0  0  0
  9 23  2  0  0  0  0
 10 12  1  0  0  0  0
 10 14  1  0  0  0  0
 10 16  1  0  0  0  0
 15 11  1  1  0  0  0
 11 20  1  0  0  0  0
 11 38  1  0  0  0  0
 12 15  1  0  0  0  0
 12 29  1  6  0  0  0
 13 14  1  0  0  0  0
 13 17  1  0  0  0  0
 13 18  1  0  0  0  0
 14 19  1  6  0  0  0
 14 30  1  0  0  0  0
 15 16  1  0  0  0  0
 15 31  1  0  0  0  0
 17 32  1  0  0  0  0
 17 33  1  0  0  0  0
 17 34  1  0  0  0  0
 18 35  1  0  0  0  0
 18 36  1  0  0  0  0
 18 37  1  0  0  0  0
 20 21  1  0  0  0  0
 21 22  1  0  0  0  0
 21 23  1  0  0  0  0
 21 39  1  0  0  0  0
 22 24  2  0  0  0  0
 22 25  1  0  0  0  0
 24 26  1  0  0  0  0
 24 40  1  0  0  0  0
 25 27  2  0  0  0  0
 25 41  1  0  0  0  0
 26 28  2  0  0  0  0
 26 42  1  0  0  0  0
 27 28  1  0  0  0  0
 27 43  1  0  0  0  0
 28 44  1  0  0  0  0
M  CHG  4   2   1   3   1   5  -1   8  -1
M  END
> <PUBCHEM_COMPOUND_CID>
20933

> <PUBCHEM_COMPOUND_CANONICALIZED>
1

> <PUBCHEM_CACTVS_COMPLEXITY>
634

> <PUBCHEM_CACTVS_HBOND_ACCEPTOR>
7

> <PUBCHEM_CACTVS_HBOND_DONOR>
1

> <PUBCHEM_CACTVS_ROTATABLE_BOND>
3

> <PUBCHEM_CACTVS_SUBSKEYS>
AAADceB7ODBAAAAAAAAAAAAAAABYAWAAAAAwAAAABYAAAAABAAAAHgQQAAAADSjF2ASyCIPAAAiIAiHSGAACAABgABAIiIGIAIgKYD6olTGUIAAm9gG4iAeYyOCOgAAAAAAAAAAAAAAAAAAAAAAAAAAAAA==

> <PUBCHEM_IUPAC_OPENEYE_NAME>
disodium;(2S,5R,6R)-6-[(2-carboxylato-2-phenyl-acetyl)amino]-3,3-dimethyl-7-oxo-4-thia-1-azabicyclo[3.2.0]heptane-2-carboxylate

> <PUBCHEM_IUPAC_CAS_NAME>
disodium;(2S,5R,6R)-6-[(2-carboxylato-1-oxo-2-phenylethyl)amino]-3,3-dimethyl-7-oxo-4-thia-1-azabicyclo[3.2.0]heptane-2-carboxylate

> <PUBCHEM_IUPAC_NAME_MARKUP>
disodium;(2<I>S</I>,5<I>R</I>,6<I>R</I>)-6-[(2-carboxylato-2-phenylacetyl)amino]-3,3-dimethyl-7-oxo-4-thia-1-azabicyclo[3.2.0]heptane-2-carboxylate

> <PUBCHEM_IUPAC_NAME>
disodium;(2S,5R,6R)-6-[(2-carboxylato-2-phenylacetyl)amino]-3,3-dimethyl-7-oxo-4-thia-1-azabicyclo[3.2.0]heptane-2-carboxylate

> <PUBCHEM_IUPAC_SYSTEMATIC_NAME>
disodium;(2S,5R,6R)-3,3-dimethyl-6-[(3-oxidanidyl-3-oxidanylidene-2-phenyl-propanoyl)amino]-7-oxidanylidene-4-thia-1-azabicyclo[3.2.0]heptane-2-carboxylate

> <PUBCHEM_IUPAC_TRADITIONAL_NAME>
disodium;(2S,5R,6R)-6-[(2-carboxylato-2-phenyl-acetyl)amino]-7-keto-3,3-dimethyl-4-thia-1-azabicyclo[3.2.0]heptane-2-carboxylate

> <PUBCHEM_IUPAC_INCHI>
InChI=1S/C17H18N2O6S.2Na/c1-17(2)11(16(24)25)19-13(21)10(14(19)26-17)18-12(20)9(15(22)23)8-6-4-3-5-7-8;;/h3-7,9-11,14H,1-2H3,(H,18,20)(H,22,23)(H,24,25);;/q;2*+1/p-2/t9?,10-,11+,14-;;/m1../s1

> <PUBCHEM_IUPAC_INCHIKEY>
RTYJTGSCYUUYAL-YCAHSCEMSA-L

> <PUBCHEM_EXACT_MASS>
422.052446

> <PUBCHEM_MOLECULAR_FORMULA>
C17H16N2Na2O6S

> <PUBCHEM_MOLECULAR_WEIGHT>
422.4

> <PUBCHEM_OPENEYE_CAN_SMILES>
CC1(C(N2C(S1)C(C2=O)NC(=O)C(C3=CC=CC=C3)C(=O)[O-])C(=O)[O-])C.[Na+].[Na+]

> <PUBCHEM_OPENEYE_ISO_SMILES>
CC1([C@@H](N2[C@H](S1)[C@@H](C2=O)NC(=O)C(C3=CC=CC=C3)C(=O)[O-])C(=O)[O-])C.[Na+].[Na+]

> <PUBCHEM_CACTVS_TPSA>
155

> <PUBCHEM_MONOISOTOPIC_WEIGHT>
422.052446

> <PUBCHEM_TOTAL_CHARGE>
0

> <PUBCHEM_HEAVY_ATOM_COUNT>
28

> <PUBCHEM_ATOM_DEF_STEREO_COUNT>
3

> <PUBCHEM_ATOM_UDEF_STEREO_COUNT>
1

> <PUBCHEM_BOND_DEF_STEREO_COUNT>
0

> <PUBCHEM_BOND_UDEF_STEREO_COUNT>
0

> <PUBCHEM_ISOTOPIC_ATOM_COUNT>
0

> <PUBCHEM_COMPONENT_COUNT>
3

> <PUBCHEM_CACTVS_TAUTO_COUNT>
-1

> <PUBCHEM_COORDINATE_TYPE>
1
5
255

> <PUBCHEM_BONDANNOTATIONS>
15  11  5
12  29  6
14  19  6
21  23  3
22  24  8
22  25  8
24  26  8
25  27  8
26  28  8
27  28  8

$$$$
20345
  -OEChem-04052116402D

 42 45  0     1  0  0  0  0  0999 V2000
    6.7495    2.1896    0.0000 O   0  0  0  0  0  0  0  0  0  0  0  0
    4.2116    2.6940    0.0000 O   0  0  0  0  0  0  0  0  0  0  0  0
    5.4934    4.4518    0.0000 O   0  0  0  0  0  0  0  0  0  0  0  0
    8.4741    3.3677    0.0000 O   0  0  0  0  0  0  0  0  0  0  0  0
    3.6180   -3.9608    0.0000 O   0  0  0  0  0  0  0  0  0  0  0  0
    5.4873    0.9317    0.0000 N   0  0  0  0  0  0  0  0  0  0  0  0
    5.4873   -0.6778    0.0000 N   0  0  0  0  0  0  0  0  0  0  0  0
    3.6750    1.1270    0.0000 N   0  0  0  0  0  0  0  0  0  0  0  0
    3.6750   -1.8730    0.0000 N   0  0  0  0  0  0  0  0  0  0  0  0
    2.8090   -0.3730    0.0000 N   0  0  0  0  0  0  0  0  0  0  0  0
    5.2116    2.6922    0.0000 C   0  0  1  0  0  0  0  0  0  0  0  0
    5.7980    1.8822    0.0000 C   0  0  1  0  0  0  0  0  0  0  0  0
    5.8008    3.5002    0.0000 C   0  0  1  0  0  0  0  0  0  0  0  0
    6.7513    3.1896    0.0000 C   0  0  1  0  0  0  0  0  0  0  0  0
    7.5613    3.7760    0.0000 C   0  0  0  0  0  0  0  0  0  0  0  0
    4.5411    0.6270    0.0000 C   0  0  0  0  0  0  0  0  0  0  0  0
    6.0709    0.1270    0.0000 C   0  0  0  0  0  0  0  0  0  0  0  0
    4.5411   -0.3730    0.0000 C   0  0  0  0  0  0  0  0  0  0  0  0
    3.6750   -0.8730    0.0000 C   0  0  0  0  0  0  0  0  0  0  0  0
    2.8090    0.6270    0.0000 C   0  0  0  0  0  0  0  0  0  0  0  0
    2.8090   -2.3730    0.0000 C   0  0  0  0  0  0  0  0  0  0  0  0
    2.8090   -3.3730    0.0000 C   0  0  0  0  0  0  0  0  0  0  0  0
    2.0000   -3.9608    0.0000 C   0  0  0  0  0  0  0  0  0  0  0  0
    2.3090   -4.9119    0.0000 C   0  0  0  0  0  0  0  0  0  0  0  0
    3.3090   -4.9119    0.0000 C   0  0  0  0  0  0  0  0  0  0  0  0
    4.9310    3.2452    0.0000 H   0  0  0  0  0  0  0  0  0  0  0  0
    5.1854    1.7863    0.0000 H   0  0  0  0  0  0  0  0  0  0  0  0
    5.1886    3.5983    0.0000 H   0  0  0  0  0  0  0  0  0  0  0  0
    7.3032    2.9072    0.0000 H   0  0  0  0  0  0  0  0  0  0  0  0
    7.9089    4.2894    0.0000 H   0  0  0  0  0  0  0  0  0  0  0  0
    7.1161    4.2074    0.0000 H   0  0  0  0  0  0  0  0  0  0  0  0
    3.9025    3.2315    0.0000 H   0  0  0  0  0  0  0  0  0  0  0  0
    5.9090    4.9119    0.0000 H   0  0  0  0  0  0  0  0  0  0  0  0
    6.6909    0.1270    0.0000 H   0  0  0  0  0  0  0  0  0  0  0  0
    8.9764    3.7312    0.0000 H   0  0  0  0  0  0  0  0  0  0  0  0
    4.2120   -2.1830    0.0000 H   0  0  0  0  0  0  0  0  0  0  0  0
    2.2721    0.9370    0.0000 H   0  0  0  0  0  0  0  0  0  0  0  0
    2.5970   -1.7904    0.0000 H   0  0  0  0  0  0  0  0  0  0  0  0
    2.1984   -2.4807    0.0000 H   0  0  0  0  0  0  0  0  0  0  0  0
    1.4103   -3.7692    0.0000 H   0  0  0  0  0  0  0  0  0  0  0  0
    1.9446   -5.4135    0.0000 H   0  0  0  0  0  0  0  0  0  0  0  0
    3.6734   -5.4135    0.0000 H   0  0  0  0  0  0  0  0  0  0  0  0
  1 12  1  0  0  0  0
  1 14  1  0  0  0  0
 11  2  1  6  0  0  0
  2 32  1  0  0  0  0
 13  3  1  6  0  0  0
  3 33  1  0  0  0  0
  4 15  1  0  0  0  0
  4 35  1  0  0  0  0
  5 22  1  0  0  0  0
  5 25  1  0  0  0  0
 12  6  1  1  0  0  0
  6 16  1  0  0  0  0
  6 17  1  0  0  0  0
  7 17  2  0  0  0  0
  7 18  1  0  0  0  0
  8 16  2  0  0  0  0
  8 20  1  0  0  0  0
  9 19  1  0  0  0  0
  9 21  1  0  0  0  0
  9 36  1  0  0  0  0
 10 19  1  0  0  0  0
 10 20  2  0  0  0  0
 11 12  1  0  0  0  0
 11 13  1  0  0  0  0
 11 26  1  0  0  0  0
 12 27  1  0  0  0  0
 13 14  1  0  0  0  0
 13 28  1  0  0  0  0
 14 15  1  1  0  0  0
 14 29  1  0  0  0  0
 15 30  1  0  0  0  0
 15 31  1  0  0  0  0
 16 18  1  0  0  0  0
 17 34  1  0  0  0  0
 18 19  2  0  0  0  0
 20 37  1  0  0  0  0
 21 22  1  0  0  0  0
 21 38  1  0  0  0  0
 21 39  1  0  0  0  0
 22 23  2  0  0  0  0
 23 24  1  0  0  0  0
 23 40  1  0  0  0  0
 24 25  2  0  0  0  0
 24 41  1  0  0  0  0
 25 42  1  0  0  0  0
M  END
> <PUBCHEM_COMPOUND_CID>
20345

> <PUBCHEM_COMPOUND_CANONICALIZED>
1

> <PUBCHEM_CACTVS_COMPLEXITY>
460

> <PUBCHEM_CACTVS_HBOND_ACCEPTOR>
9

> <PUBCHEM_CACTVS_HBOND_DONOR>
4

> <PUBCHEM_CACTVS_ROTATABLE_BOND>
5

> <PUBCHEM_CACTVS_SUBSKEYS>
AAADceBzuAAAAAAAAAAAAAAAAAAAAWJEgAAsAAAAAAAAAFgB/gAAHgAQCAAACBzhlwY19L/MFkCoAa5z5ACCiC01MKAJ2KGuXNiPfjLE/XufXSjvwBPbqab4MQIAAAAAAAAAAAAAAAAAAAAAAAAAAAAAAA==

> <PUBCHEM_IUPAC_OPENEYE_NAME>
(2R,3R,4S,5R)-2-[6-(2-furylmethylamino)purin-9-yl]-5-(hydroxymethyl)tetrahydrofuran-3,4-diol

> <PUBCHEM_IUPAC_CAS_NAME>
(2R,3R,4S,5R)-2-[6-(2-furanylmethylamino)-9-purinyl]-5-(hydroxymethyl)oxolane-3,4-diol

> <PUBCHEM_IUPAC_NAME_MARKUP>
(2<I>R</I>,3<I>R</I>,4<I>S</I>,5<I>R</I>)-2-[6-(furan-2-ylmethylamino)purin-9-yl]-5-(hydroxymethyl)oxolane-3,4-diol

> <PUBCHEM_IUPAC_NAME>
(2R,3R,4S,5R)-2-[6-(furan-2-ylmethylamino)purin-9-yl]-5-(hydroxymethyl)oxolane-3,4-diol

> <PUBCHEM_IUPAC_SYSTEMATIC_NAME>
(2R,3R,4S,5R)-2-[6-(furan-2-ylmethylamino)purin-9-yl]-5-(hydroxymethyl)oxolane-3,4-diol

> <PUBCHEM_IUPAC_TRADITIONAL_NAME>
(2R,3R,4S,5R)-2-[6-(2-furfurylamino)purin-9-yl]-5-methylol-tetrahydrofuran-3,4-diol

> <PUBCHEM_IUPAC_INCHI>
InChI=1S/C15H17N5O5/c21-5-9-11(22)12(23)15(25-9)20-7-19-10-13(17-6-18-14(10)20)16-4-8-2-1-3-24-8/h1-3,6-7,9,11-12,15,21-23H,4-5H2,(H,16,17,18)/t9-,11-,12-,15-/m1/s1

> <PUBCHEM_IUPAC_INCHIKEY>
CAGLGYNQQSIUGX-SDBHATRESA-N

> <PUBCHEM_XLOGP3>
0.2

> <PUBCHEM_EXACT_MASS>
347.122969

> <PUBCHEM_MOLECULAR_FORMULA>
C15H17N5O5

> <PUBCHEM_MOLECULAR_WEIGHT>
347.33

> <PUBCHEM_OPENEYE_CAN_SMILES>
C1=COC(=C1)CNC2=C3C(=NC=N2)N(C=N3)C4C(C(C(O4)CO)O)O

> <PUBCHEM_OPENEYE_ISO_SMILES>
C1=COC(=C1)CNC2=C3C(=NC=N2)N(C=N3)[C@H]4[C@@H]([C@@H]([C@H](O4)CO)O)O

> <PUBCHEM_CACTVS_TPSA>
139

> <PUBCHEM_MONOISOTOPIC_WEIGHT>
347.122969

> <PUBCHEM_TOTAL_CHARGE>
0

> <PUBCHEM_HEAVY_ATOM_COUNT>
25

> <PUBCHEM_ATOM_DEF_STEREO_COUNT>
4

> <PUBCHEM_ATOM_UDEF_STEREO_COUNT>
0

> <PUBCHEM_BOND_DEF_STEREO_COUNT>
0

> <PUBCHEM_BOND_UDEF_STEREO_COUNT>
0

> <PUBCHEM_ISOTOPIC_ATOM_COUNT>
0

> <PUBCHEM_COMPONENT_COUNT>
1

> <PUBCHEM_CACTVS_TAUTO_COUNT>
-1

> <PUBCHEM_COORDINATE_TYPE>
1
5
255

> <PUBCHEM_BONDANNOTATIONS>
10  19  8
10  20  8
14  15  5
16  18  8
18  19  8
11  2  6
22  23  8
23  24  8
24  25  8
13  3  6
5  22  8
5  25  8
12  6  5
6  16  8
6  17  8
7  17  8
7  18  8
8  16  8
8  20  8

$$$$
19395
  -OEChem-04052116402D

 37 36  0     0  0  0  0  0  0999 V2000
    5.0981   -1.7320    0.0000 S   0  0  0  0  0  0  0  0  0  0  0  0
    5.8301   -1.7320    0.0000 S   0  0  0  0  0  0  0  0  0  0  0  0
    4.5981   -0.8660    0.0000 P   0  0  0  0  0  0  0  0  0  0  0  0
    6.3301   -0.8660    0.0000 P   0  0  0  0  0  0  0  0  0  0  0  0
    5.4641   -0.3660    0.0000 O   0  0  0  0  0  0  0  0  0  0  0  0
    3.7320   -1.3660    0.0000 O   0  0  0  0  0  0  0  0  0  0  0  0
    4.0981   -0.0000    0.0000 O   0  0  0  0  0  0  0  0  0  0  0  0
    7.1962   -1.3660    0.0000 O   0  0  0  0  0  0  0  0  0  0  0  0
    6.8301   -0.0000    0.0000 O   0  0  0  0  0  0  0  0  0  0  0  0
    2.8660   -0.8660    0.0000 C   0  0  0  0  0  0  0  0  0  0  0  0
    4.5981    0.8660    0.0000 C   0  0  0  0  0  0  0  0  0  0  0  0
    8.0622   -0.8660    0.0000 C   0  0  0  0  0  0  0  0  0  0  0  0
    6.3301    0.8660    0.0000 C   0  0  0  0  0  0  0  0  0  0  0  0
    2.0000   -1.3660    0.0000 C   0  0  0  0  0  0  0  0  0  0  0  0
    4.0981    1.7320    0.0000 C   0  0  0  0  0  0  0  0  0  0  0  0
    8.9282   -1.3660    0.0000 C   0  0  0  0  0  0  0  0  0  0  0  0
    6.8301    1.7320    0.0000 C   0  0  0  0  0  0  0  0  0  0  0  0
    3.2646   -0.3911    0.0000 H   0  0  0  0  0  0  0  0  0  0  0  0
    2.4675   -0.3911    0.0000 H   0  0  0  0  0  0  0  0  0  0  0  0
    5.0730    0.4675    0.0000 H   0  0  0  0  0  0  0  0  0  0  0  0
    5.0730    1.2646    0.0000 H   0  0  0  0  0  0  0  0  0  0  0  0
    8.4607   -0.3911    0.0000 H   0  0  0  0  0  0  0  0  0  0  0  0
    7.6636   -0.3911    0.0000 H   0  0  0  0  0  0  0  0  0  0  0  0
    5.8552    1.2646    0.0000 H   0  0  0  0  0  0  0  0  0  0  0  0
    5.8552    0.4675    0.0000 H   0  0  0  0  0  0  0  0  0  0  0  0
    1.6900   -0.8291    0.0000 H   0  0  0  0  0  0  0  0  0  0  0  0
    1.4631   -1.6760    0.0000 H   0  0  0  0  0  0  0  0  0  0  0  0
    2.3100   -1.9030    0.0000 H   0  0  0  0  0  0  0  0  0  0  0  0
    4.6350    2.0420    0.0000 H   0  0  0  0  0  0  0  0  0  0  0  0
    3.7881    2.2690    0.0000 H   0  0  0  0  0  0  0  0  0  0  0  0
    3.5611    1.4220    0.0000 H   0  0  0  0  0  0  0  0  0  0  0  0
    8.6182   -1.9030    0.0000 H   0  0  0  0  0  0  0  0  0  0  0  0
    9.4651   -1.6760    0.0000 H   0  0  0  0  0  0  0  0  0  0  0  0
    9.2382   -0.8291    0.0000 H   0  0  0  0  0  0  0  0  0  0  0  0
    7.3671    1.4220    0.0000 H   0  0  0  0  0  0  0  0  0  0  0  0
    7.1401    2.2690    0.0000 H   0  0  0  0  0  0  0  0  0  0  0  0
    6.2932    2.0420    0.0000 H   0  0  0  0  0  0  0  0  0  0  0  0
  1  3  2  0  0  0  0
  2  4  2  0  0  0  0
  3  5  1  0  0  0  0
  3  6  1  0  0  0  0
  3  7  1  0  0  0  0
  4  5  1  0  0  0  0
  4  8  1  0  0  0  0
  4  9  1  0  0  0  0
  6 10  1  0  0  0  0
  7 11  1  0  0  0  0
  8 12  1  0  0  0  0
  9 13  1  0  0  0  0
 10 14  1  0  0  0  0
 10 18  1  0  0  0  0
 10 19  1  0  0  0  0
 11 15  1  0  0  0  0
 11 20  1  0  0  0  0
 11 21  1  0  0  0  0
 12 16  1  0  0  0  0
 12 22  1  0  0  0  0
 12 23  1  0  0  0  0
 13 17  1  0  0  0  0
 13 24  1  0  0  0  0
 13 25  1  0  0  0  0
 14 26  1  0  0  0  0
 14 27  1  0  0  0  0
 14 28  1  0  0  0  0
 15 29  1  0  0  0  0
 15 30  1  0  0  0  0
 15 31  1  0  0  0  0
 16 32  1  0  0  0  0
 16 33  1  0  0  0  0
 16 34  1  0  0  0  0
 17 35  1  0  0  0  0
 17 36  1  0  0  0  0
 17 37  1  0  0  0  0
M  END
> <PUBCHEM_COMPOUND_CID>
19395

> <PUBCHEM_COMPOUND_CANONICALIZED>
1

> <PUBCHEM_CACTVS_COMPLEXITY>
252

> <PUBCHEM_CACTVS_HBOND_ACCEPTOR>
7

> <PUBCHEM_CACTVS_HBOND_DONOR>
0

> <PUBCHEM_CACTVS_ROTATABLE_BOND>
10

> <PUBCHEM_CACTVS_SUBSKEYS>
AAADceBwOANgAAAAAAAAAAAAAAAAAAAAAAAAAAAAAAAAAAAAAAAAGgAAACAAAACggAICAAAAARAAAAAAAAAAAAAAAAAAAAAAAAAAAAAAAAAAAAAAAAAAAAAAAAAAAAAAAAAAAAAAAAAAAAAAAAAAAAAAAA==

> <PUBCHEM_IUPAC_OPENEYE_NAME>
diethoxyphosphinothioyloxy-diethoxy-thioxo-lambda5-phosphane

> <PUBCHEM_IUPAC_CAS_NAME>
diethoxyphosphinothioyloxy-diethoxy-sulfanylidenephosphorane

> <PUBCHEM_IUPAC_NAME_MARKUP>
diethoxyphosphinothioyloxy-diethoxy-sulfanylidene-&lambda;<SUP>5</SUP>-phosphane

> <PUBCHEM_IUPAC_NAME>
diethoxyphosphinothioyloxy-diethoxy-sulfanylidene-lambda5-phosphane

> <PUBCHEM_IUPAC_SYSTEMATIC_NAME>
diethoxyphosphinothioyloxy-diethoxy-sulfanylidene-lambda5-phosphane

> <PUBCHEM_IUPAC_TRADITIONAL_NAME>
diethoxythiophosphoryloxy-diethoxy-thioxo-phosphorane

> <PUBCHEM_IUPAC_INCHI>
InChI=1S/C8H20O5P2S2/c1-5-9-14(16,10-6-2)13-15(17,11-7-3)12-8-4/h5-8H2,1-4H3

> <PUBCHEM_IUPAC_INCHIKEY>
XIUROWKZWPIAIB-UHFFFAOYSA-N

> <PUBCHEM_XLOGP3_AA>
3.9

> <PUBCHEM_EXACT_MASS>
322.02274

> <PUBCHEM_MOLECULAR_FORMULA>
C8H20O5P2S2

> <PUBCHEM_MOLECULAR_WEIGHT>
322.3

> <PUBCHEM_OPENEYE_CAN_SMILES>
CCOP(=S)(OCC)OP(=S)(OCC)OCC

> <PUBCHEM_OPENEYE_ISO_SMILES>
CCOP(=S)(OCC)OP(=S)(OCC)OCC

> <PUBCHEM_CACTVS_TPSA>
110

> <PUBCHEM_MONOISOTOPIC_WEIGHT>
322.02274

> <PUBCHEM_TOTAL_CHARGE>
0

> <PUBCHEM_HEAVY_ATOM_COUNT>
17

> <PUBCHEM_ATOM_DEF_STEREO_COUNT>
0

> <PUBCHEM_ATOM_UDEF_STEREO_COUNT>
0

> <PUBCHEM_BOND_DEF_STEREO_COUNT>
0

> <PUBCHEM_BOND_UDEF_STEREO_COUNT>
0

> <PUBCHEM_ISOTOPIC_ATOM_COUNT>
0

> <PUBCHEM_COMPONENT_COUNT>
1

> <PUBCHEM_CACTVS_TAUTO_COUNT>
-1

> <PUBCHEM_COORDINATE_TYPE>
1
5
255

$$$$
17689
  -OEChem-04052116402D

 21 19  0     0  0  0  0  0  0999 V2000
    4.0010    1.9030    0.0000 Br  0  0  0  0  0  0  0  0  0  0  0  0
    1.7505    4.8059    0.0000 Br  0  5  0  0  0  0  0  0  0  0  0  0
    1.4030    1.4030    0.0000 N   0  3  0  0  0  0  0  0  0  0  0  0
    2.2690    1.9030    0.0000 C   0  0  0  0  0  0  0  0  0  0  0  0
    0.5369    0.9030    0.0000 C   0  0  0  0  0  0  0  0  0  0  0  0
    0.9030    2.2690    0.0000 C   0  0  0  0  0  0  0  0  0  0  0  0
    1.9030    0.5369    0.0000 C   0  0  0  0  0  0  0  0  0  0  0  0
    3.1350    1.4030    0.0000 C   0  0  0  0  0  0  0  0  0  0  0  0
    2.6675    2.3779    0.0000 H   0  0  0  0  0  0  0  0  0  0  0  0
    1.8705    2.3779    0.0000 H   0  0  0  0  0  0  0  0  0  0  0  0
    0.2269    1.4399    0.0000 H   0  0  0  0  0  0  0  0  0  0  0  0
    0.0000    0.5930    0.0000 H   0  0  0  0  0  0  0  0  0  0  0  0
    0.8469    0.3660    0.0000 H   0  0  0  0  0  0  0  0  0  0  0  0
    1.4399    2.5790    0.0000 H   0  0  0  0  0  0  0  0  0  0  0  0
    0.5930    2.8059    0.0000 H   0  0  0  0  0  0  0  0  0  0  0  0
    0.3660    1.9590    0.0000 H   0  0  0  0  0  0  0  0  0  0  0  0
    1.3660    0.2269    0.0000 H   0  0  0  0  0  0  0  0  0  0  0  0
    2.2130    0.0000    0.0000 H   0  0  0  0  0  0  0  0  0  0  0  0
    2.4399    0.8469    0.0000 H   0  0  0  0  0  0  0  0  0  0  0  0
    2.7365    0.9280    0.0000 H   0  0  0  0  0  0  0  0  0  0  0  0
    3.5335    0.9280    0.0000 H   0  0  0  0  0  0  0  0  0  0  0  0
  1  8  1  0  0  0  0
  3  4  1  0  0  0  0
  3  5  1  0  0  0  0
  3  6  1  0  0  0  0
  3  7  1  0  0  0  0
  4  8  1  0  0  0  0
  4  9  1  0  0  0  0
  4 10  1  0  0  0  0
  5 11  1  0  0  0  0
  5 12  1  0  0  0  0
  5 13  1  0  0  0  0
  6 14  1  0  0  0  0
  6 15  1  0  0  0  0
  6 16  1  0  0  0  0
  7 17  1  0  0  0  0
  7 18  1  0  0  0  0
  7 19  1  0  0  0  0
  8 20  1  0  0  0  0
  8 21  1  0  0  0  0
M  CHG  2   2  -1   3   1
M  END
> <PUBCHEM_COMPOUND_CID>
17689

> <PUBCHEM_COMPOUND_CANONICALIZED>
1

> <PUBCHEM_CACTVS_COMPLEXITY>
46.5

> <PUBCHEM_CACTVS_HBOND_ACCEPTOR>
1

> <PUBCHEM_CACTVS_HBOND_DONOR>
0

> <PUBCHEM_CACTVS_ROTATABLE_BOND>
2

> <PUBCHEM_CACTVS_SUBSKEYS>
AAADccBiAAAAGAAAAAAAAAAAAAAAAAAAAAAAAAAAAAAAAAAAAAAAHABAAAABQADBAAQCAAMAAAAAAAAAAAAAAAAAAAAAAAAIAAAAAAAAAAAAAAAAAAAAAAAAAAAAAAAAAAAAAAAAAAAAAAAAAAAAAAAAAA==

> <PUBCHEM_IUPAC_OPENEYE_NAME>
2-bromoethyl(trimethyl)ammonium;bromide

> <PUBCHEM_IUPAC_CAS_NAME>
2-bromoethyl(trimethyl)ammonium;bromide

> <PUBCHEM_IUPAC_NAME_MARKUP>
2-bromoethyl(trimethyl)azanium;bromide

> <PUBCHEM_IUPAC_NAME>
2-bromoethyl(trimethyl)azanium;bromide

> <PUBCHEM_IUPAC_SYSTEMATIC_NAME>
2-bromoethyl(trimethyl)azanium;bromide

> <PUBCHEM_IUPAC_TRADITIONAL_NAME>
2-bromoethyl(trimethyl)ammonium;bromide

> <PUBCHEM_IUPAC_INCHI>
InChI=1S/C5H13BrN.BrH/c1-7(2,3)5-4-6;/h4-5H2,1-3H3;1H/q+1;/p-1

> <PUBCHEM_IUPAC_INCHIKEY>
OINMNSFDYTYXEQ-UHFFFAOYSA-M

> <PUBCHEM_EXACT_MASS>
246.93943

> <PUBCHEM_MOLECULAR_FORMULA>
C5H13Br2N

> <PUBCHEM_MOLECULAR_WEIGHT>
246.97

> <PUBCHEM_OPENEYE_CAN_SMILES>
C[N+](C)(C)CCBr.[Br-]

> <PUBCHEM_OPENEYE_ISO_SMILES>
C[N+](C)(C)CCBr.[Br-]

> <PUBCHEM_CACTVS_TPSA>
0

> <PUBCHEM_MONOISOTOPIC_WEIGHT>
244.94147

> <PUBCHEM_TOTAL_CHARGE>
0

> <PUBCHEM_HEAVY_ATOM_COUNT>
8

> <PUBCHEM_ATOM_DEF_STEREO_COUNT>
0

> <PUBCHEM_ATOM_UDEF_STEREO_COUNT>
0

> <PUBCHEM_BOND_DEF_STEREO_COUNT>
0

> <PUBCHEM_BOND_UDEF_STEREO_COUNT>
0

> <PUBCHEM_ISOTOPIC_ATOM_COUNT>
0

> <PUBCHEM_COMPONENT_COUNT>
2

> <PUBCHEM_CACTVS_TAUTO_COUNT>
-1

> <PUBCHEM_COORDINATE_TYPE>
1
5
255

$$$$
15965
  -OEChem-04052116402D

 16 16  0     0  0  0  0  0  0999 V2000
    2.8660    1.0000    0.0000 Cl  0  0  0  0  0  0  0  0  0  0  0  0
    6.3301    1.0000    0.0000 Cl  0  0  0  0  0  0  0  0  0  0  0  0
    6.3301   -1.0000    0.0000 Cl  0  0  0  0  0  0  0  0  0  0  0  0
    2.8660   -2.0000    0.0000 O   0  0  0  0  0  0  0  0  0  0  0  0
    2.0000   -0.5000    0.0000 O   0  0  0  0  0  0  0  0  0  0  0  0
    4.5981   -1.0000    0.0000 N   0  0  0  0  0  0  0  0  0  0  0  0
    4.5981    2.0000    0.0000 N   0  0  0  0  0  0  0  0  0  0  0  0
    4.5981    1.0000    0.0000 C   0  0  0  0  0  0  0  0  0  0  0  0
    3.7320    0.5000    0.0000 C   0  0  0  0  0  0  0  0  0  0  0  0
    3.7320   -0.5000    0.0000 C   0  0  0  0  0  0  0  0  0  0  0  0
    5.4641    0.5000    0.0000 C   0  0  0  0  0  0  0  0  0  0  0  0
    5.4641   -0.5000    0.0000 C   0  0  0  0  0  0  0  0  0  0  0  0
    2.8660   -1.0000    0.0000 C   0  0  0  0  0  0  0  0  0  0  0  0
    5.1350    2.3100    0.0000 H   0  0  0  0  0  0  0  0  0  0  0  0
    4.0611    2.3100    0.0000 H   0  0  0  0  0  0  0  0  0  0  0  0
    2.3291   -2.3100    0.0000 H   0  0  0  0  0  0  0  0  0  0  0  0
  1  9  1  0  0  0  0
  2 11  1  0  0  0  0
  3 12  1  0  0  0  0
  4 13  1  0  0  0  0
  4 16  1  0  0  0  0
  5 13  2  0  0  0  0
  6 10  2  0  0  0  0
  6 12  1  0  0  0  0
  7  8  1  0  0  0  0
  7 14  1  0  0  0  0
  7 15  1  0  0  0  0
  8  9  2  0  0  0  0
  8 11  1  0  0  0  0
  9 10  1  0  0  0  0
 10 13  1  0  0  0  0
 11 12  2  0  0  0  0
M  END
> <PUBCHEM_COMPOUND_CID>
15965

> <PUBCHEM_COMPOUND_CANONICALIZED>
1

> <PUBCHEM_CACTVS_COMPLEXITY>
216

> <PUBCHEM_CACTVS_HBOND_ACCEPTOR>
4

> <PUBCHEM_CACTVS_HBOND_DONOR>
2

> <PUBCHEM_CACTVS_ROTATABLE_BOND>
1

> <PUBCHEM_CACTVS_SUBSKEYS>
AAADcQBjMAAGAAAAAAAAAAAAAAAAAAAAAAAsAAAAAAAAAAABgAAADgIQCAAACAoBliAAyJJIEgCoAQTwTASCgCAnBCAAmmGgTtgKJnLB1vHEdQhkwAHY3Qe8SAAAAAAAAAAAAAAAAAAAAAAAAAAAAAAAAA==

> <PUBCHEM_IUPAC_OPENEYE_NAME>
4-amino-3,5,6-trichloro-pyridine-2-carboxylic acid

> <PUBCHEM_IUPAC_CAS_NAME>
4-amino-3,5,6-trichloro-2-pyridinecarboxylic acid

> <PUBCHEM_IUPAC_NAME_MARKUP>
4-amino-3,5,6-trichloropyridine-2-carboxylic acid

> <PUBCHEM_IUPAC_NAME>
4-amino-3,5,6-trichloropyridine-2-carboxylic acid

> <PUBCHEM_IUPAC_SYSTEMATIC_NAME>
4-azanyl-3,5,6-tris(chloranyl)pyridine-2-carboxylic acid

> <PUBCHEM_IUPAC_TRADITIONAL_NAME>
4-amino-3,5,6-trichloro-picolinic acid

> <PUBCHEM_IUPAC_INCHI>
InChI=1S/C6H3Cl3N2O2/c7-1-3(10)2(8)5(9)11-4(1)6(12)13/h(H2,10,11)(H,12,13)

> <PUBCHEM_IUPAC_INCHIKEY>
NQQVFXUMIDALNH-UHFFFAOYSA-N

> <PUBCHEM_XLOGP3_AA>
2.2

> <PUBCHEM_EXACT_MASS>
239.92601

> <PUBCHEM_MOLECULAR_FORMULA>
C6H3Cl3N2O2

> <PUBCHEM_MOLECULAR_WEIGHT>
241.5

> <PUBCHEM_OPENEYE_CAN_SMILES>
C1(=C(C(=NC(=C1Cl)Cl)C(=O)O)Cl)N

> <PUBCHEM_OPENEYE_ISO_SMILES>
C1(=C(C(=NC(=C1Cl)Cl)C(=O)O)Cl)N

> <PUBCHEM_CACTVS_TPSA>
76.2

> <PUBCHEM_MONOISOTOPIC_WEIGHT>
239.92601

> <PUBCHEM_TOTAL_CHARGE>
0

> <PUBCHEM_HEAVY_ATOM_COUNT>
13

> <PUBCHEM_ATOM_DEF_STEREO_COUNT>
0

> <PUBCHEM_ATOM_UDEF_STEREO_COUNT>
0

> <PUBCHEM_BOND_DEF_STEREO_COUNT>
0

> <PUBCHEM_BOND_UDEF_STEREO_COUNT>
0

> <PUBCHEM_ISOTOPIC_ATOM_COUNT>
0

> <PUBCHEM_COMPONENT_COUNT>
1

> <PUBCHEM_CACTVS_TAUTO_COUNT>
-1

> <PUBCHEM_COORDINATE_TYPE>
1
5
255

> <PUBCHEM_BONDANNOTATIONS>
11  12  8
6  10  8
6  12  8
8  11  8
8  9  8
9  10  8

$$$$
13836
  -OEChem-04052116402D

 21 19  0     0  0  0  0  0  0999 V2000
    4.0010    1.9030    0.0000 Cl  0  0  0  0  0  0  0  0  0  0  0  0
    1.7505    4.8059    0.0000 Cl  0  5  0  0  0  0  0  0  0  0  0  0
    1.4030    1.4030    0.0000 N   0  3  0  0  0  0  0  0  0  0  0  0
    2.2690    1.9030    0.0000 C   0  0  0  0  0  0  0  0  0  0  0  0
    0.5369    0.9030    0.0000 C   0  0  0  0  0  0  0  0  0  0  0  0
    0.9030    2.2690    0.0000 C   0  0  0  0  0  0  0  0  0  0  0  0
    1.9030    0.5369    0.0000 C   0  0  0  0  0  0  0  0  0  0  0  0
    3.1350    1.4030    0.0000 C   0  0  0  0  0  0  0  0  0  0  0  0
    2.6675    2.3779    0.0000 H   0  0  0  0  0  0  0  0  0  0  0  0
    1.8705    2.3779    0.0000 H   0  0  0  0  0  0  0  0  0  0  0  0
    0.2269    1.4399    0.0000 H   0  0  0  0  0  0  0  0  0  0  0  0
    0.0000    0.5930    0.0000 H   0  0  0  0  0  0  0  0  0  0  0  0
    0.8469    0.3660    0.0000 H   0  0  0  0  0  0  0  0  0  0  0  0
    1.4399    2.5790    0.0000 H   0  0  0  0  0  0  0  0  0  0  0  0
    0.5930    2.8059    0.0000 H   0  0  0  0  0  0  0  0  0  0  0  0
    0.3660    1.9590    0.0000 H   0  0  0  0  0  0  0  0  0  0  0  0
    1.3660    0.2269    0.0000 H   0  0  0  0  0  0  0  0  0  0  0  0
    2.2130    0.0000    0.0000 H   0  0  0  0  0  0  0  0  0  0  0  0
    2.4399    0.8469    0.0000 H   0  0  0  0  0  0  0  0  0  0  0  0
    2.7365    0.9280    0.0000 H   0  0  0  0  0  0  0  0  0  0  0  0
    3.5335    0.9280    0.0000 H   0  0  0  0  0  0  0  0  0  0  0  0
  1  8  1  0  0  0  0
  3  4  1  0  0  0  0
  3  5  1  0  0  0  0
  3  6  1  0  0  0  0
  3  7  1  0  0  0  0
  4  8  1  0  0  0  0
  4  9  1  0  0  0  0
  4 10  1  0  0  0  0
  5 11  1  0  0  0  0
  5 12  1  0  0  0  0
  5 13  1  0  0  0  0
  6 14  1  0  0  0  0
  6 15  1  0  0  0  0
  6 16  1  0  0  0  0
  7 17  1  0  0  0  0
  7 18  1  0  0  0  0
  7 19  1  0  0  0  0
  8 20  1  0  0  0  0
  8 21  1  0  0  0  0
M  CHG  2   2  -1   3   1
M  END
> <PUBCHEM_COMPOUND_CID>
13836

> <PUBCHEM_COMPOUND_CANONICALIZED>
1

> <PUBCHEM_CACTVS_COMPLEXITY>
46.5

> <PUBCHEM_CACTVS_HBOND_ACCEPTOR>
1

> <PUBCHEM_CACTVS_HBOND_DONOR>
0

> <PUBCHEM_CACTVS_ROTATABLE_BOND>
2

> <PUBCHEM_CACTVS_SUBSKEYS>
AAADccBiAAAGAAAAAAAAAAAAAAAAAAAAAAAAAAAAAAAAAAAAAAAAHAIAAAAAAAPBAEQCAAMAAAAAAAAAAAAAAAAAAAAAAAAIAAAAAAAAAABAAAAAAAAAAAAAAAAAAAAAAAAAAAAAAAAAAAAAAAAAAAAAAA==

> <PUBCHEM_IUPAC_OPENEYE_NAME>
2-chloroethyl(trimethyl)ammonium;chloride

> <PUBCHEM_IUPAC_CAS_NAME>
2-chloroethyl(trimethyl)ammonium;chloride

> <PUBCHEM_IUPAC_NAME_MARKUP>
2-chloroethyl(trimethyl)azanium;chloride

> <PUBCHEM_IUPAC_NAME>
2-chloroethyl(trimethyl)azanium;chloride

> <PUBCHEM_IUPAC_SYSTEMATIC_NAME>
2-chloroethyl(trimethyl)azanium;chloride

> <PUBCHEM_IUPAC_TRADITIONAL_NAME>
2-chloroethyl(trimethyl)ammonium;chloride

> <PUBCHEM_IUPAC_INCHI>
InChI=1S/C5H13ClN.ClH/c1-7(2,3)5-4-6;/h4-5H2,1-3H3;1H/q+1;/p-1

> <PUBCHEM_IUPAC_INCHIKEY>
UHZZMRAGKVHANO-UHFFFAOYSA-M

> <PUBCHEM_EXACT_MASS>
157.042505

> <PUBCHEM_MOLECULAR_FORMULA>
C5H13Cl2N

> <PUBCHEM_MOLECULAR_WEIGHT>
158.07

> <PUBCHEM_OPENEYE_CAN_SMILES>
C[N+](C)(C)CCCl.[Cl-]

> <PUBCHEM_OPENEYE_ISO_SMILES>
C[N+](C)(C)CCCl.[Cl-]

> <PUBCHEM_CACTVS_TPSA>
0

> <PUBCHEM_MONOISOTOPIC_WEIGHT>
157.042505

> <PUBCHEM_TOTAL_CHARGE>
0

> <PUBCHEM_HEAVY_ATOM_COUNT>
8

> <PUBCHEM_ATOM_DEF_STEREO_COUNT>
0

> <PUBCHEM_ATOM_UDEF_STEREO_COUNT>
0

> <PUBCHEM_BOND_DEF_STEREO_COUNT>
0

> <PUBCHEM_BOND_UDEF_STEREO_COUNT>
0

> <PUBCHEM_ISOTOPIC_ATOM_COUNT>
0

> <PUBCHEM_COMPONENT_COUNT>
2

> <PUBCHEM_CACTVS_TAUTO_COUNT>
-1

> <PUBCHEM_COORDINATE_TYPE>
1
5
255

$$$$
12560
  -OEChem-04052116402D

118120  0     1  0  0  0  0  0999 V2000
    5.4641   -0.9472    0.0000 O   0  0  0  0  0  0  0  0  0  0  0  0
    7.1962   -0.9472    0.0000 O   0  0  0  0  0  0  0  0  0  0  0  0
    3.6322    0.8117    0.0000 O   0  0  0  0  0  0  0  0  0  0  0  0
    3.7320   -0.9472    0.0000 O   0  0  0  0  0  0  0  0  0  0  0  0
    8.9282   -0.9472    0.0000 O   0  0  0  0  0  0  0  0  0  0  0  0
    8.9282    2.0528    0.0000 O   0  0  0  0  0  0  0  0  0  0  0  0
    9.4282   -3.8132    0.0000 O   0  0  0  0  0  0  0  0  0  0  0  0
    5.4641   -2.9472    0.0000 O   0  0  0  0  0  0  0  0  0  0  0  0
   10.6603   -2.9472    0.0000 O   0  0  0  0  0  0  0  0  0  0  0  0
    8.3210    4.5188    0.0000 O   0  0  0  0  0  0  0  0  0  0  0  0
    7.8390    2.2868    0.0000 O   0  0  0  0  0  0  0  0  0  0  0  0
    4.5981    3.5528    0.0000 O   0  0  0  0  0  0  0  0  0  0  0  0
    7.1962    2.0528    0.0000 O   0  0  0  0  0  0  0  0  0  0  0  0
    3.7320   -3.9472    0.0000 N   0  0  0  0  0  0  0  0  0  0  0  0
    5.4641    0.0528    0.0000 C   0  0  2  0  0  0  0  0  0  0  0  0
    6.3301    0.5528    0.0000 C   0  0  2  0  0  0  0  0  0  0  0  0
    4.5981    0.5528    0.0000 C   0  0  1  0  0  0  0  0  0  0  0  0
    7.1962    0.0528    0.0000 C   0  0  1  0  0  0  0  0  0  0  0  0
    4.5981    1.5528    0.0000 C   0  0  0  0  0  0  0  0  0  0  0  0
    8.0622    0.5528    0.0000 C   0  0  2  0  0  0  0  0  0  0  0  0
    5.4641    2.0528    0.0000 C   0  0  2  0  0  0  0  0  0  0  0  0
    4.5981   -1.4472    0.0000 C   0  0  2  0  0  0  0  0  0  0  0  0
    8.0622   -1.4472    0.0000 C   0  0  2  0  0  0  0  0  0  0  0  0
    8.9282   -2.9472    0.0000 C   0  0  2  0  0  0  0  0  0  0  0  0
    6.3301    1.5528    0.0000 C   0  0  0  0  0  0  0  0  0  0  0  0
    4.5981   -2.4472    0.0000 C   0  0  1  0  0  0  0  0  0  0  0  0
    8.0622   -2.4472    0.0000 C   0  0  0  0  0  0  0  0  0  0  0  0
    3.7320   -2.9472    0.0000 C   0  0  2  0  0  0  0  0  0  0  0  0
    3.8910   -0.1543    0.0000 C   0  0  0  0  0  0  0  0  0  0  0  0
    9.7942   -2.4472    0.0000 C   0  0  2  0  0  0  0  0  0  0  0  0
    6.3301    3.5528    0.0000 C   0  0  2  0  0  0  0  0  0  0  0  0
    8.0622    3.5528    0.0000 C   0  0  1  0  0  0  0  0  0  0  0  0
    2.8660   -2.4472    0.0000 C   0  0  0  0  0  0  0  0  0  0  0  0
    9.7942   -1.4472    0.0000 C   0  0  2  0  0  0  0  0  0  0  0  0
    7.1962    3.0528    0.0000 C   0  0  2  0  0  0  0  0  0  0  0  0
    5.4641    3.0528    0.0000 C   0  0  0  0  0  0  0  0  0  0  0  0
    2.8660   -1.4472    0.0000 C   0  0  1  0  0  0  0  0  0  0  0  0
    8.9282    3.0528    0.0000 C   0  0  1  0  0  0  0  0  0  0  0  0
    8.0622    1.5528    0.0000 C   0  0  0  0  0  0  0  0  0  0  0  0
    8.9282    0.0528    0.0000 C   0  0  0  0  0  0  0  0  0  0  0  0
    5.4641    1.0528    0.0000 C   0  0  0  0  0  0  0  0  0  0  0  0
    8.4282   -3.8132    0.0000 C   0  0  0  0  0  0  0  0  0  0  0  0
    6.3301    4.5528    0.0000 C   0  0  0  0  0  0  0  0  0  0  0  0
    7.4886    4.3720    0.0000 C   0  0  0  0  0  0  0  0  0  0  0  0
    9.7942    3.5528    0.0000 C   0  0  0  0  0  0  0  0  0  0  0  0
   10.6603   -0.9472    0.0000 C   0  0  0  0  0  0  0  0  0  0  0  0
    2.0000   -0.9472    0.0000 C   0  0  0  0  0  0  0  0  0  0  0  0
    2.8660   -4.4472    0.0000 C   0  0  0  0  0  0  0  0  0  0  0  0
    4.5981   -4.4472    0.0000 C   0  0  0  0  0  0  0  0  0  0  0  0
   10.6603    3.0528    0.0000 C   0  0  0  0  0  0  0  0  0  0  0  0
    8.9282   -4.6792    0.0000 C   0  0  0  0  0  0  0  0  0  0  0  0
    6.0010   -0.2572    0.0000 H   0  0  0  0  0  0  0  0  0  0  0  0
    6.8671    0.8628    0.0000 H   0  0  0  0  0  0  0  0  0  0  0  0
    7.7331   -0.2572    0.0000 H   0  0  0  0  0  0  0  0  0  0  0  0
    4.3860    2.1354    0.0000 H   0  0  0  0  0  0  0  0  0  0  0  0
    3.9875    1.4452    0.0000 H   0  0  0  0  0  0  0  0  0  0  0  0
    8.5991    0.8628    0.0000 H   0  0  0  0  0  0  0  0  0  0  0  0
    6.0841    2.0528    0.0000 H   0  0  0  0  0  0  0  0  0  0  0  0
    4.5981   -0.8272    0.0000 H   0  0  0  0  0  0  0  0  0  0  0  0
    7.5252   -1.7572    0.0000 H   0  0  0  0  0  0  0  0  0  0  0  0
    6.9501    1.5528    0.0000 H   0  0  0  0  0  0  0  0  0  0  0  0
    6.3301    2.1728    0.0000 H   0  0  0  0  0  0  0  0  0  0  0  0
    5.7101    1.5528    0.0000 H   0  0  0  0  0  0  0  0  0  0  0  0
    4.5981   -3.0672    0.0000 H   0  0  0  0  0  0  0  0  0  0  0  0
    7.4516   -2.3395    0.0000 H   0  0  0  0  0  0  0  0  0  0  0  0
    7.8501   -3.0298    0.0000 H   0  0  0  0  0  0  0  0  0  0  0  0
    3.1951   -3.2572    0.0000 H   0  0  0  0  0  0  0  0  0  0  0  0
    3.4526    0.2841    0.0000 H   0  0  0  0  0  0  0  0  0  0  0  0
    3.4526   -0.5927    0.0000 H   0  0  0  0  0  0  0  0  0  0  0  0
    4.3294   -0.5927    0.0000 H   0  0  0  0  0  0  0  0  0  0  0  0
    9.7942   -3.0672    0.0000 H   0  0  0  0  0  0  0  0  0  0  0  0
    6.8671    3.8628    0.0000 H   0  0  0  0  0  0  0  0  0  0  0  0
    2.2554   -2.3395    0.0000 H   0  0  0  0  0  0  0  0  0  0  0  0
    2.6540   -3.0298    0.0000 H   0  0  0  0  0  0  0  0  0  0  0  0
    9.7942   -0.8272    0.0000 H   0  0  0  0  0  0  0  0  0  0  0  0
    6.7976    2.5779    0.0000 H   0  0  0  0  0  0  0  0  0  0  0  0
    2.8660   -0.8272    0.0000 H   0  0  0  0  0  0  0  0  0  0  0  0
    9.4651    2.7428    0.0000 H   0  0  0  0  0  0  0  0  0  0  0  0
    3.4717    1.4105    0.0000 H   0  0  0  0  0  0  0  0  0  0  0  0
    8.6182   -0.4841    0.0000 H   0  0  0  0  0  0  0  0  0  0  0  0
    9.4651   -0.2572    0.0000 H   0  0  0  0  0  0  0  0  0  0  0  0
    9.2382    0.5898    0.0000 H   0  0  0  0  0  0  0  0  0  0  0  0
    4.8441    1.0528    0.0000 H   0  0  0  0  0  0  0  0  0  0  0  0
    5.4641    0.4328    0.0000 H   0  0  0  0  0  0  0  0  0  0  0  0
    6.0841    1.0528    0.0000 H   0  0  0  0  0  0  0  0  0  0  0  0
    7.8913   -3.5032    0.0000 H   0  0  0  0  0  0  0  0  0  0  0  0
    8.1182   -4.3501    0.0000 H   0  0  0  0  0  0  0  0  0  0  0  0
    8.9651   -4.1232    0.0000 H   0  0  0  0  0  0  0  0  0  0  0  0
    6.9501    4.5528    0.0000 H   0  0  0  0  0  0  0  0  0  0  0  0
    6.3301    5.1728    0.0000 H   0  0  0  0  0  0  0  0  0  0  0  0
    5.7101    4.5528    0.0000 H   0  0  0  0  0  0  0  0  0  0  0  0
    7.9965    4.7276    0.0000 H   0  0  0  0  0  0  0  0  0  0  0  0
    7.1330    4.8799    0.0000 H   0  0  0  0  0  0  0  0  0  0  0  0
    6.9807    4.0164    0.0000 H   0  0  0  0  0  0  0  0  0  0  0  0
   10.1928    4.0278    0.0000 H   0  0  0  0  0  0  0  0  0  0  0  0
    9.3957    4.0278    0.0000 H   0  0  0  0  0  0  0  0  0  0  0  0
   10.9703   -1.4841    0.0000 H   0  0  0  0  0  0  0  0  0  0  0  0
   11.1972   -0.6372    0.0000 H   0  0  0  0  0  0  0  0  0  0  0  0
   10.3503   -0.4102    0.0000 H   0  0  0  0  0  0  0  0  0  0  0  0
    2.3100   -0.4102    0.0000 H   0  0  0  0  0  0  0  0  0  0  0  0
    1.4631   -0.6372    0.0000 H   0  0  0  0  0  0  0  0  0  0  0  0
    1.6900   -1.4841    0.0000 H   0  0  0  0  0  0  0  0  0  0  0  0
    6.0010   -2.6372    0.0000 H   0  0  0  0  0  0  0  0  0  0  0  0
   11.1972   -2.6372    0.0000 H   0  0  0  0  0  0  0  0  0  0  0  0
    8.9199    4.6792    0.0000 H   0  0  0  0  0  0  0  0  0  0  0  0
    8.3139    2.6853    0.0000 H   0  0  0  0  0  0  0  0  0  0  0  0
    2.5560   -3.9102    0.0000 H   0  0  0  0  0  0  0  0  0  0  0  0
    2.3291   -4.7572    0.0000 H   0  0  0  0  0  0  0  0  0  0  0  0
    3.1760   -4.9841    0.0000 H   0  0  0  0  0  0  0  0  0  0  0  0
    4.2881   -4.9841    0.0000 H   0  0  0  0  0  0  0  0  0  0  0  0
    5.1350   -4.7572    0.0000 H   0  0  0  0  0  0  0  0  0  0  0  0
    4.9081   -3.9102    0.0000 H   0  0  0  0  0  0  0  0  0  0  0  0
   10.3503    2.5159    0.0000 H   0  0  0  0  0  0  0  0  0  0  0  0
   11.1972    2.7428    0.0000 H   0  0  0  0  0  0  0  0  0  0  0  0
   10.9703    3.5898    0.0000 H   0  0  0  0  0  0  0  0  0  0  0  0
    8.3913   -4.3692    0.0000 H   0  0  0  0  0  0  0  0  0  0  0  0
    8.6182   -5.2162    0.0000 H   0  0  0  0  0  0  0  0  0  0  0  0
    9.4651   -4.9892    0.0000 H   0  0  0  0  0  0  0  0  0  0  0  0
 15  1  1  1  0  0  0
 22  1  1  1  0  0  0
 18  2  1  1  0  0  0
 23  2  1  6  0  0  0
 17  3  1  6  0  0  0
  3 79  1  0  0  0  0
  4 22  1  0  0  0  0
  4 37  1  0  0  0  0
  5 23  1  0  0  0  0
  5 34  1  0  0  0  0
  6 38  1  0  0  0  0
  6 39  1  0  0  0  0
 24  7  1  6  0  0  0
  7 51  1  0  0  0  0
 26  8  1  6  0  0  0
  8103  1  0  0  0  0
 30  9  1  6  0  0  0
  9104  1  0  0  0  0
 32 10  1  6  0  0  0
 10105  1  0  0  0  0
 35 11  1  6  0  0  0
 11106  1  0  0  0  0
 12 36  2  0  0  0  0
 13 39  2  0  0  0  0
 28 14  1  1  0  0  0
 14 48  1  0  0  0  0
 14 49  1  0  0  0  0
 15 16  1  0  0  0  0
 15 17  1  0  0  0  0
 15 52  1  0  0  0  0
 16 18  1  0  0  0  0
 16 25  1  1  0  0  0
 16 53  1  0  0  0  0
 17 19  1  0  0  0  0
 17 29  1  0  0  0  0
 18 20  1  0  0  0  0
 18 54  1  0  0  0  0
 19 21  1  0  0  0  0
 19 55  1  0  0  0  0
 19 56  1  0  0  0  0
 20 39  1  0  0  0  0
 20 40  1  6  0  0  0
 20 57  1  0  0  0  0
 21 36  1  0  0  0  0
 21 41  1  6  0  0  0
 21 58  1  0  0  0  0
 22 26  1  0  0  0  0
 22 59  1  0  0  0  0
 23 27  1  0  0  0  0
 23 60  1  0  0  0  0
 24 27  1  0  0  0  0
 24 30  1  0  0  0  0
 24 42  1  0  0  0  0
 25 61  1  0  0  0  0
 25 62  1  0  0  0  0
 25 63  1  0  0  0  0
 26 28  1  0  0  0  0
 26 64  1  0  0  0  0
 27 65  1  0  0  0  0
 27 66  1  0  0  0  0
 28 33  1  0  0  0  0
 28 67  1  0  0  0  0
 29 68  1  0  0  0  0
 29 69  1  0  0  0  0
 29 70  1  0  0  0  0
 30 34  1  0  0  0  0
 30 71  1  0  0  0  0
 31 35  1  0  0  0  0
 31 36  1  0  0  0  0
 31 43  1  6  0  0  0
 31 72  1  0  0  0  0
 32 35  1  0  0  0  0
 32 38  1  0  0  0  0
 32 44  1  0  0  0  0
 33 37  1  0  0  0  0
 33 73  1  0  0  0  0
 33 74  1  0  0  0  0
 34 46  1  1  0  0  0
 34 75  1  0  0  0  0
 35 76  1  0  0  0  0
 37 47  1  1  0  0  0
 37 77  1  0  0  0  0
 38 45  1  1  0  0  0
 38 78  1  0  0  0  0
 40 80  1  0  0  0  0
 40 81  1  0  0  0  0
 40 82  1  0  0  0  0
 41 83  1  0  0  0  0
 41 84  1  0  0  0  0
 41 85  1  0  0  0  0
 42 86  1  0  0  0  0
 42 87  1  0  0  0  0
 42 88  1  0  0  0  0
 43 89  1  0  0  0  0
 43 90  1  0  0  0  0
 43 91  1  0  0  0  0
 44 92  1  0  0  0  0
 44 93  1  0  0  0  0
 44 94  1  0  0  0  0
 45 50  1  0  0  0  0
 45 95  1  0  0  0  0
 45 96  1  0  0  0  0
 46 97  1  0  0  0  0
 46 98  1  0  0  0  0
 46 99  1  0  0  0  0
 47100  1  0  0  0  0
 47101  1  0  0  0  0
 47102  1  0  0  0  0
 48107  1  0  0  0  0
 48108  1  0  0  0  0
 48109  1  0  0  0  0
 49110  1  0  0  0  0
 49111  1  0  0  0  0
 49112  1  0  0  0  0
 50113  1  0  0  0  0
 50114  1  0  0  0  0
 50115  1  0  0  0  0
 51116  1  0  0  0  0
 51117  1  0  0  0  0
 51118  1  0  0  0  0
M  END
> <PUBCHEM_COMPOUND_CID>
12560

> <PUBCHEM_COMPOUND_CANONICALIZED>
1

> <PUBCHEM_CACTVS_COMPLEXITY>
1180

> <PUBCHEM_CACTVS_HBOND_ACCEPTOR>
14

> <PUBCHEM_CACTVS_HBOND_DONOR>
5

> <PUBCHEM_CACTVS_ROTATABLE_BOND>
7

> <PUBCHEM_CACTVS_SUBSKEYS>
AAADcfB+PAAAAAAAAAAAAAAAAAAAAAAAAAAkSAAAAAAAAAAAAAAAHgAACAAADXzxgAcCCAMABgAIAICQCAAAAAAAAAAAAAEIAAATEBYAgAAmQAAHIAAXAAHK7PzOAAAAAAAAAAAAAAAAAAAAAAAAAAAAAA==

> <PUBCHEM_IUPAC_OPENEYE_NAME>
(3R,4S,5S,6R,7R,9R,11R,12R,13S,14R)-6-[(2S,3R,4S,6R)-4-(dimethylamino)-3-hydroxy-6-methyl-tetrahydropyran-2-yl]oxy-14-ethyl-7,12,13-trihydroxy-4-[(2R,4R,5S,6S)-5-hydroxy-4-methoxy-4,6-dimethyl-tetrahydropyran-2-yl]oxy-3,5,7,9,11,13-hexamethyl-oxacyclotetradecane-2,10-dione

> <PUBCHEM_IUPAC_CAS_NAME>
(3R,4S,5S,6R,7R,9R,11R,12R,13S,14R)-6-[[(2S,3R,4S,6R)-4-(dimethylamino)-3-hydroxy-6-methyl-2-oxanyl]oxy]-14-ethyl-7,12,13-trihydroxy-4-[[(2R,4R,5S,6S)-5-hydroxy-4-methoxy-4,6-dimethyl-2-oxanyl]oxy]-3,5,7,9,11,13-hexamethyl-oxacyclotetradecane-2,10-dione

> <PUBCHEM_IUPAC_NAME_MARKUP>
(3<I>R</I>,4<I>S</I>,5<I>S</I>,6<I>R</I>,7<I>R</I>,9<I>R</I>,11<I>R</I>,12<I>R</I>,13<I>S</I>,14<I>R</I>)-6-[(2<I>S</I>,3<I>R</I>,4<I>S</I>,6<I>R</I>)-4-(dimethylamino)-3-hydroxy-6-methyloxan-2-yl]oxy-14-ethyl-7,12,13-trihydroxy-4-[(2<I>R</I>,4<I>R</I>,5<I>S</I>,6<I>S</I>)-5-hydroxy-4-methoxy-4,6-dimethyloxan-2-yl]oxy-3,5,7,9,11,13-hexamethyl-oxacyclotetradecane-2,10-dione

> <PUBCHEM_IUPAC_NAME>
(3R,4S,5S,6R,7R,9R,11R,12R,13S,14R)-6-[(2S,3R,4S,6R)-4-(dimethylamino)-3-hydroxy-6-methyloxan-2-yl]oxy-14-ethyl-7,12,13-trihydroxy-4-[(2R,4R,5S,6S)-5-hydroxy-4-methoxy-4,6-dimethyloxan-2-yl]oxy-3,5,7,9,11,13-hexamethyl-oxacyclotetradecane-2,10-dione

> <PUBCHEM_IUPAC_SYSTEMATIC_NAME>
(3R,4S,5S,6R,7R,9R,11R,12R,13S,14R)-6-[(2S,3R,4S,6R)-4-(dimethylamino)-6-methyl-3-oxidanyl-oxan-2-yl]oxy-14-ethyl-4-[(2R,4R,5S,6S)-4-methoxy-4,6-dimethyl-5-oxidanyl-oxan-2-yl]oxy-3,5,7,9,11,13-hexamethyl-7,12,13-tris(oxidanyl)-1-oxacyclotetradecane-2,10-dione

> <PUBCHEM_IUPAC_TRADITIONAL_NAME>
(3R,4S,5S,6R,7R,9R,11R,12R,13S,14R)-6-[(2S,3R,4S,6R)-4-(dimethylamino)-3-hydroxy-6-methyl-tetrahydropyran-2-yl]oxy-14-ethyl-7,12,13-trihydroxy-4-[(2R,4R,5S,6S)-5-hydroxy-4-methoxy-4,6-dimethyl-tetrahydropyran-2-yl]oxy-3,5,7,9,11,13-hexamethyl-oxacyclotetradecane-2,10-quinone

> <PUBCHEM_IUPAC_INCHI>
InChI=1S/C37H67NO13/c1-14-25-37(10,45)30(41)20(4)27(39)18(2)16-35(8,44)32(51-34-28(40)24(38(11)12)15-19(3)47-34)21(5)29(22(6)33(43)49-25)50-26-17-36(9,46-13)31(42)23(7)48-26/h18-26,28-32,34,40-42,44-45H,14-17H2,1-13H3/t18-,19-,20+,21+,22-,23+,24+,25-,26+,28-,29+,30-,31+,32-,34+,35-,36-,37-/m1/s1

> <PUBCHEM_IUPAC_INCHIKEY>
ULGZDMOVFRHVEP-RWJQBGPGSA-N

> <PUBCHEM_XLOGP3>
2.7

> <PUBCHEM_EXACT_MASS>
733.461241

> <PUBCHEM_MOLECULAR_FORMULA>
C37H67NO13

> <PUBCHEM_MOLECULAR_WEIGHT>
733.9

> <PUBCHEM_OPENEYE_CAN_SMILES>
CCC1C(C(C(C(=O)C(CC(C(C(C(C(C(=O)O1)C)OC2CC(C(C(O2)C)O)(C)OC)C)OC3C(C(CC(O3)C)N(C)C)O)(C)O)C)C)O)(C)O

> <PUBCHEM_OPENEYE_ISO_SMILES>
CC[C@@H]1[C@@]([C@@H]([C@H](C(=O)[C@@H](C[C@@]([C@@H]([C@H]([C@@H]([C@H](C(=O)O1)C)O[C@H]2C[C@@]([C@H]([C@@H](O2)C)O)(C)OC)C)O[C@H]3[C@@H]([C@H](C[C@H](O3)C)N(C)C)O)(C)O)C)C)O)(C)O

> <PUBCHEM_CACTVS_TPSA>
194

> <PUBCHEM_MONOISOTOPIC_WEIGHT>
733.461241

> <PUBCHEM_TOTAL_CHARGE>
0

> <PUBCHEM_HEAVY_ATOM_COUNT>
51

> <PUBCHEM_ATOM_DEF_STEREO_COUNT>
18

> <PUBCHEM_ATOM_UDEF_STEREO_COUNT>
0

> <PUBCHEM_BOND_DEF_STEREO_COUNT>
0

> <PUBCHEM_BOND_UDEF_STEREO_COUNT>
0

> <PUBCHEM_ISOTOPIC_ATOM_COUNT>
0

> <PUBCHEM_COMPONENT_COUNT>
1

> <PUBCHEM_CACTVS_TAUTO_COUNT>
-1

> <PUBCHEM_COORDINATE_TYPE>
1
5
255

> <PUBCHEM_BONDANNOTATIONS>
15  1  5
22  1  5
32  10  6
35  11  6
28  14  5
16  25  5
18  2  5
23  2  6
20  40  6
21  41  6
17  3  6
31  43  6
34  46  5
37  47  5
38  45  5
24  7  6
26  8  6
30  9  6

$$$$
12391
  -OEChem-04052116402D

 47 46  0     0  0  0  0  0  0999 V2000
    8.0622   -0.2500    0.0000 C   0  0  0  0  0  0  0  0  0  0  0  0
    8.9282    0.2500    0.0000 C   0  0  0  0  0  0  0  0  0  0  0  0
    7.1962    0.2500    0.0000 C   0  0  0  0  0  0  0  0  0  0  0  0
    9.7942   -0.2500    0.0000 C   0  0  0  0  0  0  0  0  0  0  0  0
    6.3301   -0.2500    0.0000 C   0  0  0  0  0  0  0  0  0  0  0  0
   10.6603    0.2500    0.0000 C   0  0  0  0  0  0  0  0  0  0  0  0
    5.4641    0.2500    0.0000 C   0  0  0  0  0  0  0  0  0  0  0  0
   11.5263   -0.2500    0.0000 C   0  0  0  0  0  0  0  0  0  0  0  0
    4.5981   -0.2500    0.0000 C   0  0  0  0  0  0  0  0  0  0  0  0
   12.3923    0.2500    0.0000 C   0  0  0  0  0  0  0  0  0  0  0  0
    3.7320    0.2500    0.0000 C   0  0  0  0  0  0  0  0  0  0  0  0
   13.2583   -0.2500    0.0000 C   0  0  0  0  0  0  0  0  0  0  0  0
    2.8660   -0.2500    0.0000 C   0  0  0  0  0  0  0  0  0  0  0  0
   14.1244    0.2500    0.0000 C   0  0  0  0  0  0  0  0  0  0  0  0
    2.0000    0.2500    0.0000 C   0  0  0  0  0  0  0  0  0  0  0  0
    7.6636   -0.7249    0.0000 H   0  0  0  0  0  0  0  0  0  0  0  0
    8.4607   -0.7249    0.0000 H   0  0  0  0  0  0  0  0  0  0  0  0
    9.3267    0.7249    0.0000 H   0  0  0  0  0  0  0  0  0  0  0  0
    8.5297    0.7249    0.0000 H   0  0  0  0  0  0  0  0  0  0  0  0
    7.5947    0.7249    0.0000 H   0  0  0  0  0  0  0  0  0  0  0  0
    6.7976    0.7249    0.0000 H   0  0  0  0  0  0  0  0  0  0  0  0
    9.3957   -0.7249    0.0000 H   0  0  0  0  0  0  0  0  0  0  0  0
   10.1928   -0.7249    0.0000 H   0  0  0  0  0  0  0  0  0  0  0  0
    5.9316   -0.7249    0.0000 H   0  0  0  0  0  0  0  0  0  0  0  0
    6.7287   -0.7249    0.0000 H   0  0  0  0  0  0  0  0  0  0  0  0
   11.0588    0.7249    0.0000 H   0  0  0  0  0  0  0  0  0  0  0  0
   10.2617    0.7249    0.0000 H   0  0  0  0  0  0  0  0  0  0  0  0
    5.8626    0.7249    0.0000 H   0  0  0  0  0  0  0  0  0  0  0  0
    5.0656    0.7249    0.0000 H   0  0  0  0  0  0  0  0  0  0  0  0
   11.1278   -0.7249    0.0000 H   0  0  0  0  0  0  0  0  0  0  0  0
   11.9248   -0.7249    0.0000 H   0  0  0  0  0  0  0  0  0  0  0  0
    4.1996   -0.7249    0.0000 H   0  0  0  0  0  0  0  0  0  0  0  0
    4.9966   -0.7249    0.0000 H   0  0  0  0  0  0  0  0  0  0  0  0
   12.7908    0.7249    0.0000 H   0  0  0  0  0  0  0  0  0  0  0  0
   11.9938    0.7249    0.0000 H   0  0  0  0  0  0  0  0  0  0  0  0
    4.1306    0.7249    0.0000 H   0  0  0  0  0  0  0  0  0  0  0  0
    3.3335    0.7249    0.0000 H   0  0  0  0  0  0  0  0  0  0  0  0
   12.8598   -0.7249    0.0000 H   0  0  0  0  0  0  0  0  0  0  0  0
   13.6569   -0.7249    0.0000 H   0  0  0  0  0  0  0  0  0  0  0  0
    2.4675   -0.7249    0.0000 H   0  0  0  0  0  0  0  0  0  0  0  0
    3.2646   -0.7249    0.0000 H   0  0  0  0  0  0  0  0  0  0  0  0
   14.4344   -0.2869    0.0000 H   0  0  0  0  0  0  0  0  0  0  0  0
   14.6613    0.5600    0.0000 H   0  0  0  0  0  0  0  0  0  0  0  0
   13.8144    0.7869    0.0000 H   0  0  0  0  0  0  0  0  0  0  0  0
    2.3100    0.7869    0.0000 H   0  0  0  0  0  0  0  0  0  0  0  0
    1.4631    0.5600    0.0000 H   0  0  0  0  0  0  0  0  0  0  0  0
    1.6900   -0.2869    0.0000 H   0  0  0  0  0  0  0  0  0  0  0  0
  1  2  1  0  0  0  0
  1  3  1  0  0  0  0
  1 16  1  0  0  0  0
  1 17  1  0  0  0  0
  2  4  1  0  0  0  0
  2 18  1  0  0  0  0
  2 19  1  0  0  0  0
  3  5  1  0  0  0  0
  3 20  1  0  0  0  0
  3 21  1  0  0  0  0
  4  6  1  0  0  0  0
  4 22  1  0  0  0  0
  4 23  1  0  0  0  0
  5  7  1  0  0  0  0
  5 24  1  0  0  0  0
  5 25  1  0  0  0  0
  6  8  1  0  0  0  0
  6 26  1  0  0  0  0
  6 27  1  0  0  0  0
  7  9  1  0  0  0  0
  7 28  1  0  0  0  0
  7 29  1  0  0  0  0
  8 10  1  0  0  0  0
  8 30  1  0  0  0  0
  8 31  1  0  0  0  0
  9 11  1  0  0  0  0
  9 32  1  0  0  0  0
  9 33  1  0  0  0  0
 10 12  1  0  0  0  0
 10 34  1  0  0  0  0
 10 35  1  0  0  0  0
 11 13  1  0  0  0  0
 11 36  1  0  0  0  0
 11 37  1  0  0  0  0
 12 14  1  0  0  0  0
 12 38  1  0  0  0  0
 12 39  1  0  0  0  0
 13 15  1  0  0  0  0
 13 40  1  0  0  0  0
 13 41  1  0  0  0  0
 14 42  1  0  0  0  0
 14 43  1  0  0  0  0
 14 44  1  0  0  0  0
 15 45  1  0  0  0  0
 15 46  1  0  0  0  0
 15 47  1  0  0  0  0
M  END
> <PUBCHEM_COMPOUND_CID>
12391

> <PUBCHEM_COMPOUND_CANONICALIZED>
1

> <PUBCHEM_CACTVS_COMPLEXITY>
84.2

> <PUBCHEM_CACTVS_HBOND_ACCEPTOR>
0

> <PUBCHEM_CACTVS_HBOND_DONOR>
0

> <PUBCHEM_CACTVS_ROTATABLE_BOND>
12

> <PUBCHEM_CACTVS_SUBSKEYS>
AAADcfBwAAAAAAAAAAAAAAAAAAAAAAAAAAAAAAAAAAAAAAAAAAAAGAAAAAAACACAAAACAAAAAAAAAAAAAAAAAAAAAAAAAAAAAAAAAAIAAAAAAAAAAAAAAAEAgIAAAAAAAAAAAAAAAAAAAAAAAAAAAAAAAA==

> <PUBCHEM_IUPAC_OPENEYE_NAME>
pentadecane

> <PUBCHEM_IUPAC_CAS_NAME>
pentadecane

> <PUBCHEM_IUPAC_NAME_MARKUP>
pentadecane

> <PUBCHEM_IUPAC_NAME>
pentadecane

> <PUBCHEM_IUPAC_SYSTEMATIC_NAME>
pentadecane

> <PUBCHEM_IUPAC_TRADITIONAL_NAME>
pentadecane

> <PUBCHEM_IUPAC_INCHI>
InChI=1S/C15H32/c1-3-5-7-9-11-13-15-14-12-10-8-6-4-2/h3-15H2,1-2H3

> <PUBCHEM_IUPAC_INCHIKEY>
YCOZIPAWZNQLMR-UHFFFAOYSA-N

> <PUBCHEM_XLOGP3>
7.7

> <PUBCHEM_EXACT_MASS>
212.250401

> <PUBCHEM_MOLECULAR_FORMULA>
C15H32

> <PUBCHEM_MOLECULAR_WEIGHT>
212.41

> <PUBCHEM_OPENEYE_CAN_SMILES>
CCCCCCCCCCCCCCC

> <PUBCHEM_OPENEYE_ISO_SMILES>
CCCCCCCCCCCCCCC

> <PUBCHEM_CACTVS_TPSA>
0

> <PUBCHEM_MONOISOTOPIC_WEIGHT>
212.250401

> <PUBCHEM_TOTAL_CHARGE>
0

> <PUBCHEM_HEAVY_ATOM_COUNT>
15

> <PUBCHEM_ATOM_DEF_STEREO_COUNT>
0

> <PUBCHEM_ATOM_UDEF_STEREO_COUNT>
0

> <PUBCHEM_BOND_DEF_STEREO_COUNT>
0

> <PUBCHEM_BOND_UDEF_STEREO_COUNT>
0

> <PUBCHEM_ISOTOPIC_ATOM_COUNT>
0

> <PUBCHEM_COMPONENT_COUNT>
1

> <PUBCHEM_CACTVS_TAUTO_COUNT>
-1

> <PUBCHEM_COORDINATE_TYPE>
1
5
255

$$$$
9449
  -OEChem-04052116402D

 37 38  0     0  0  0  0  0  0999 V2000
    1.4030    4.3082    0.0000 S   0  0  0  0  0  0  0  0  0  0  0  0
    2.2690    4.8082    0.0000 O   0  0  0  0  0  0  0  0  0  0  0  0
    0.5369    3.8082    0.0000 O   0  0  0  0  0  0  0  0  0  0  0  0
    0.9030    5.1742    0.0000 O   0  0  0  0  0  0  0  0  0  0  0  0
    1.9030    3.4422    0.0000 O   0  0  0  0  0  0  0  0  0  0  0  0
    8.0175    1.8047    0.0000 N   0  0  0  0  0  0  0  0  0  0  0  0
    8.0175    7.1111    0.0000 N   0  0  0  0  0  0  0  0  0  0  0  0
    8.0175    0.1953    0.0000 N   0  0  0  0  0  0  0  0  0  0  0  0
    8.0175    5.5016    0.0000 N   0  0  0  0  0  0  0  0  0  0  0  0
    6.2052    0.0000    0.0000 N   0  0  0  0  0  0  0  0  0  0  0  0
    6.2052    5.3064    0.0000 N   0  0  0  0  0  0  0  0  0  0  0  0
    5.3392    1.5000    0.0000 N   0  0  0  0  0  0  0  0  0  0  0  0
    5.3392    6.8064    0.0000 N   0  0  0  0  0  0  0  0  0  0  0  0
    6.2052    3.0000    0.0000 N   0  0  0  0  0  0  0  0  0  0  0  0
    6.2052    8.3064    0.0000 N   0  0  0  0  0  0  0  0  0  0  0  0
    7.0713    1.5000    0.0000 C   0  0  0  0  0  0  0  0  0  0  0  0
    7.0713    6.8064    0.0000 C   0  0  0  0  0  0  0  0  0  0  0  0
    7.0713    0.5000    0.0000 C   0  0  0  0  0  0  0  0  0  0  0  0
    7.0713    5.8064    0.0000 C   0  0  0  0  0  0  0  0  0  0  0  0
    6.2052    2.0000    0.0000 C   0  0  0  0  0  0  0  0  0  0  0  0
    6.2052    7.3064    0.0000 C   0  0  0  0  0  0  0  0  0  0  0  0
    8.6011    1.0000    0.0000 C   0  0  0  0  0  0  0  0  0  0  0  0
    8.6011    6.3064    0.0000 C   0  0  0  0  0  0  0  0  0  0  0  0
    5.3392    0.5000    0.0000 C   0  0  0  0  0  0  0  0  0  0  0  0
    5.3392    5.8064    0.0000 C   0  0  0  0  0  0  0  0  0  0  0  0
    8.2101    2.3940    0.0000 H   0  0  0  0  0  0  0  0  0  0  0  0
    8.2101    7.7004    0.0000 H   0  0  0  0  0  0  0  0  0  0  0  0
    9.2211    1.0000    0.0000 H   0  0  0  0  0  0  0  0  0  0  0  0
    9.2211    6.3064    0.0000 H   0  0  0  0  0  0  0  0  0  0  0  0
    4.8023    0.1900    0.0000 H   0  0  0  0  0  0  0  0  0  0  0  0
    4.8023    5.4964    0.0000 H   0  0  0  0  0  0  0  0  0  0  0  0
    5.6683    3.3100    0.0000 H   0  0  0  0  0  0  0  0  0  0  0  0
    6.7422    3.3100    0.0000 H   0  0  0  0  0  0  0  0  0  0  0  0
    5.6683    8.6164    0.0000 H   0  0  0  0  0  0  0  0  0  0  0  0
    6.7422    8.6164    0.0000 H   0  0  0  0  0  0  0  0  0  0  0  0
    2.8059    4.4982    0.0000 H   0  0  0  0  0  0  0  0  0  0  0  0
    0.0000    4.1182    0.0000 H   0  0  0  0  0  0  0  0  0  0  0  0
  1  2  1  0  0  0  0
  1  3  1  0  0  0  0
  1  4  2  0  0  0  0
  1  5  2  0  0  0  0
  2 36  1  0  0  0  0
  3 37  1  0  0  0  0
  6 16  1  0  0  0  0
  6 22  1  0  0  0  0
  6 26  1  0  0  0  0
  7 17  1  0  0  0  0
  7 23  1  0  0  0  0
  7 27  1  0  0  0  0
  8 18  1  0  0  0  0
  8 22  2  0  0  0  0
  9 19  1  0  0  0  0
  9 23  2  0  0  0  0
 10 18  2  0  0  0  0
 10 24  1  0  0  0  0
 11 19  2  0  0  0  0
 11 25  1  0  0  0  0
 12 20  1  0  0  0  0
 12 24  2  0  0  0  0
 13 21  1  0  0  0  0
 13 25  2  0  0  0  0
 14 20  1  0  0  0  0
 14 32  1  0  0  0  0
 14 33  1  0  0  0  0
 15 21  1  0  0  0  0
 15 34  1  0  0  0  0
 15 35  1  0  0  0  0
 16 18  1  0  0  0  0
 16 20  2  0  0  0  0
 17 19  1  0  0  0  0
 17 21  2  0  0  0  0
 22 28  1  0  0  0  0
 23 29  1  0  0  0  0
 24 30  1  0  0  0  0
 25 31  1  0  0  0  0
M  END
> <PUBCHEM_COMPOUND_CID>
9449

> <PUBCHEM_COMPOUND_CANONICALIZED>
1

> <PUBCHEM_CACTVS_COMPLEXITY>
209

> <PUBCHEM_CACTVS_HBOND_ACCEPTOR>
12

> <PUBCHEM_CACTVS_HBOND_DONOR>
6

> <PUBCHEM_CACTVS_ROTATABLE_BOND>
0

> <PUBCHEM_CACTVS_SUBSKEYS>
AAADccBz+ABAAAAAAAAAAAAAAAAAAWLAAAAsWAAAAAAAAFgB/gAAHAAQCAAACAgBFwQF8L7JkICgAQZhZDCAgC2REKABUaAoVBCASABASEAUBAgIAAJAACAAAAAAAAAAAAAAAAAAAAAAAAAAAAAAAAAAAA==

> <PUBCHEM_IUPAC_OPENEYE_NAME>
7H-purin-6-amine;sulfuric acid

> <PUBCHEM_IUPAC_CAS_NAME>
7H-purin-6-amine;sulfuric acid

> <PUBCHEM_IUPAC_NAME_MARKUP>
7<I>H</I>-purin-6-amine;sulfuric acid

> <PUBCHEM_IUPAC_NAME>
7H-purin-6-amine;sulfuric acid

> <PUBCHEM_IUPAC_SYSTEMATIC_NAME>
7H-purin-6-amine;sulfuric acid

> <PUBCHEM_IUPAC_TRADITIONAL_NAME>
7H-adenine;sulfuric acid

> <PUBCHEM_IUPAC_INCHI>
InChI=1S/2C5H5N5.H2O4S/c2*6-4-3-5(9-1-7-3)10-2-8-4;1-5(2,3)4/h2*1-2H,(H3,6,7,8,9,10);(H2,1,2,3,4)

> <PUBCHEM_IUPAC_INCHIKEY>
LQXHSCOPYJCOMD-UHFFFAOYSA-N

> <PUBCHEM_EXACT_MASS>
368.07637

> <PUBCHEM_MOLECULAR_FORMULA>
C10H12N10O4S

> <PUBCHEM_MOLECULAR_WEIGHT>
368.34

> <PUBCHEM_OPENEYE_CAN_SMILES>
C1=NC2=NC=NC(=C2N1)N.C1=NC2=NC=NC(=C2N1)N.OS(=O)(=O)O

> <PUBCHEM_OPENEYE_ISO_SMILES>
C1=NC2=NC=NC(=C2N1)N.C1=NC2=NC=NC(=C2N1)N.OS(=O)(=O)O

> <PUBCHEM_CACTVS_TPSA>
244

> <PUBCHEM_MONOISOTOPIC_WEIGHT>
368.07637

> <PUBCHEM_TOTAL_CHARGE>
0

> <PUBCHEM_HEAVY_ATOM_COUNT>
25

> <PUBCHEM_ATOM_DEF_STEREO_COUNT>
0

> <PUBCHEM_ATOM_UDEF_STEREO_COUNT>
0

> <PUBCHEM_BOND_DEF_STEREO_COUNT>
0

> <PUBCHEM_BOND_UDEF_STEREO_COUNT>
0

> <PUBCHEM_ISOTOPIC_ATOM_COUNT>
0

> <PUBCHEM_COMPONENT_COUNT>
3

> <PUBCHEM_CACTVS_TAUTO_COUNT>
-1

> <PUBCHEM_COORDINATE_TYPE>
1
5
255

> <PUBCHEM_BONDANNOTATIONS>
10  18  8
10  24  8
11  19  8
11  25  8
12  20  8
12  24  8
13  21  8
13  25  8
16  18  8
16  20  8
17  19  8
17  21  8
6  16  8
6  22  8
7  17  8
7  23  8
8  18  8
8  22  8
9  19  8
9  23  8

$$$$
9427
  -OEChem-04052116402D

 29 30  0     1  0  0  0  0  0999 V2000
    2.4888    2.4571    0.0000 F   0  0  0  0  0  0  0  0  0  0  0  0
    5.0298   -1.1307    0.0000 O   0  0  0  0  0  0  0  0  0  0  0  0
    2.4608   -0.8216    0.0000 O   0  0  0  0  0  0  0  0  0  0  0  0
    3.1330   -2.8907    0.0000 O   0  0  0  0  0  0  0  0  0  0  0  0
    6.3031   -2.7862    0.0000 O   0  0  0  0  0  0  0  0  0  0  0  0
    5.9529    0.4571    0.0000 O   0  0  0  0  0  0  0  0  0  0  0  0
    4.2208    3.4571    0.0000 O   0  0  0  0  0  0  0  0  0  0  0  0
    4.2208    0.4571    0.0000 N   0  0  0  0  0  0  0  0  0  0  0  0
    5.0868    1.9571    0.0000 N   0  0  0  0  0  0  0  0  0  0  0  0
    3.4118   -1.1307    0.0000 C   0  0  2  0  0  0  0  0  0  0  0  0
    3.7208   -2.0817    0.0000 C   0  0  1  0  0  0  0  0  0  0  0  0
    4.2208   -0.5429    0.0000 C   0  0  1  0  0  0  0  0  0  0  0  0
    4.7208   -2.0817    0.0000 C   0  0  1  0  0  0  0  0  0  0  0  0
    5.3086   -2.8907    0.0000 C   0  0  0  0  0  0  0  0  0  0  0  0
    5.0868    0.9571    0.0000 C   0  0  0  0  0  0  0  0  0  0  0  0
    3.3548    0.9571    0.0000 C   0  0  0  0  0  0  0  0  0  0  0  0
    3.3548    1.9571    0.0000 C   0  0  0  0  0  0  0  0  0  0  0  0
    4.2208    2.4571    0.0000 C   0  0  0  0  0  0  0  0  0  0  0  0
    2.9734   -1.5691    0.0000 H   0  0  0  0  0  0  0  0  0  0  0  0
    3.1085   -1.9847    0.0000 H   0  0  0  0  0  0  0  0  0  0  0  0
    3.6684   -0.2614    0.0000 H   0  0  0  0  0  0  0  0  0  0  0  0
    5.3332   -1.9847    0.0000 H   0  0  0  0  0  0  0  0  0  0  0  0
    4.7514   -3.1625    0.0000 H   0  0  0  0  0  0  0  0  0  0  0  0
    5.4795   -3.4867    0.0000 H   0  0  0  0  0  0  0  0  0  0  0  0
    2.0000   -1.2365    0.0000 H   0  0  0  0  0  0  0  0  0  0  0  0
    3.3852   -3.4571    0.0000 H   0  0  0  0  0  0  0  0  0  0  0  0
    2.8179    0.6471    0.0000 H   0  0  0  0  0  0  0  0  0  0  0  0
    5.6238    2.2671    0.0000 H   0  0  0  0  0  0  0  0  0  0  0  0
    6.6676   -3.2878    0.0000 H   0  0  0  0  0  0  0  0  0  0  0  0
  1 17  1  0  0  0  0
  2 12  1  0  0  0  0
  2 13  1  0  0  0  0
 10  3  1  1  0  0  0
  3 25  1  0  0  0  0
 11  4  1  1  0  0  0
  4 26  1  0  0  0  0
  5 14  1  0  0  0  0
  5 29  1  0  0  0  0
  6 15  2  0  0  0  0
  7 18  2  0  0  0  0
 12  8  1  6  0  0  0
  8 15  1  0  0  0  0
  8 16  1  0  0  0  0
  9 15  1  0  0  0  0
  9 18  1  0  0  0  0
  9 28  1  0  0  0  0
 10 11  1  0  0  0  0
 10 12  1  0  0  0  0
 10 19  1  0  0  0  0
 11 13  1  0  0  0  0
 11 20  1  0  0  0  0
 12 21  1  0  0  0  0
 13 14  1  6  0  0  0
 13 22  1  0  0  0  0
 14 23  1  0  0  0  0
 14 24  1  0  0  0  0
 16 17  2  0  0  0  0
 16 27  1  0  0  0  0
 17 18  1  0  0  0  0
M  END
> <PUBCHEM_COMPOUND_CID>
9427

> <PUBCHEM_COMPOUND_CANONICALIZED>
1

> <PUBCHEM_CACTVS_COMPLEXITY>
414

> <PUBCHEM_CACTVS_HBOND_ACCEPTOR>
7

> <PUBCHEM_CACTVS_HBOND_DONOR>
4

> <PUBCHEM_CACTVS_ROTATABLE_BOND>
2

> <PUBCHEM_CACTVS_SUBSKEYS>
AAADccBzOQAAAAAAAAAAAAAAAAAAASAAAAAgAAAAAAAAAAAAAAAAHwAQCAAACBThgAYBAAPABgCIAAFWUACAAAAAAAAAAAAIAECDEAIAgAAOQAAPByITAMDwMAIAAAAAAAAAAAAAAAAAAAAAAAAAAAAAAA==

> <PUBCHEM_IUPAC_OPENEYE_NAME>
1-[(2R,3R,4S,5R)-3,4-dihydroxy-5-(hydroxymethyl)tetrahydrofuran-2-yl]-5-fluoro-pyrimidine-2,4-dione

> <PUBCHEM_IUPAC_CAS_NAME>
1-[(2R,3R,4S,5R)-3,4-dihydroxy-5-(hydroxymethyl)-2-oxolanyl]-5-fluoropyrimidine-2,4-dione

> <PUBCHEM_IUPAC_NAME_MARKUP>
1-[(2<I>R</I>,3<I>R</I>,4<I>S</I>,5<I>R</I>)-3,4-dihydroxy-5-(hydroxymethyl)oxolan-2-yl]-5-fluoropyrimidine-2,4-dione

> <PUBCHEM_IUPAC_NAME>
1-[(2R,3R,4S,5R)-3,4-dihydroxy-5-(hydroxymethyl)oxolan-2-yl]-5-fluoropyrimidine-2,4-dione

> <PUBCHEM_IUPAC_SYSTEMATIC_NAME>
5-fluoranyl-1-[(2R,3R,4S,5R)-5-(hydroxymethyl)-3,4-bis(oxidanyl)oxolan-2-yl]pyrimidine-2,4-dione

> <PUBCHEM_IUPAC_TRADITIONAL_NAME>
1-[(2R,3R,4S,5R)-3,4-dihydroxy-5-methylol-tetrahydrofuran-2-yl]-5-fluoro-pyrimidine-2,4-quinone

> <PUBCHEM_IUPAC_INCHI>
InChI=1S/C9H11FN2O6/c10-3-1-12(9(17)11-7(3)16)8-6(15)5(14)4(2-13)18-8/h1,4-6,8,13-15H,2H2,(H,11,16,17)/t4-,5-,6-,8-/m1/s1

> <PUBCHEM_IUPAC_INCHIKEY>
FHIDNBAQOFJWCA-UAKXSSHOSA-N

> <PUBCHEM_XLOGP3>
-1.7

> <PUBCHEM_EXACT_MASS>
262.060114

> <PUBCHEM_MOLECULAR_FORMULA>
C9H11FN2O6

> <PUBCHEM_MOLECULAR_WEIGHT>
262.19

> <PUBCHEM_OPENEYE_CAN_SMILES>
C1=C(C(=O)NC(=O)N1C2C(C(C(O2)CO)O)O)F

> <PUBCHEM_OPENEYE_ISO_SMILES>
C1=C(C(=O)NC(=O)N1[C@H]2[C@@H]([C@@H]([C@H](O2)CO)O)O)F

> <PUBCHEM_CACTVS_TPSA>
119

> <PUBCHEM_MONOISOTOPIC_WEIGHT>
262.060114

> <PUBCHEM_TOTAL_CHARGE>
0

> <PUBCHEM_HEAVY_ATOM_COUNT>
18

> <PUBCHEM_ATOM_DEF_STEREO_COUNT>
4

> <PUBCHEM_ATOM_UDEF_STEREO_COUNT>
0

> <PUBCHEM_BOND_DEF_STEREO_COUNT>
0

> <PUBCHEM_BOND_UDEF_STEREO_COUNT>
0

> <PUBCHEM_ISOTOPIC_ATOM_COUNT>
0

> <PUBCHEM_COMPONENT_COUNT>
1

> <PUBCHEM_CACTVS_TAUTO_COUNT>
-1

> <PUBCHEM_COORDINATE_TYPE>
1
5
255

> <PUBCHEM_BONDANNOTATIONS>
13  14  6
16  17  8
17  18  8
10  3  5
11  4  5
12  8  6
8  15  8
8  16  8
9  15  8
9  18  8

$$$$
8617
  -OEChem-04052116402D

 28 29  0     0  0  0  0  0  0999 V2000
    7.5673    2.6675    0.0000 O   0  0  0  0  0  0  0  0  0  0  0  0
    7.9244    0.9726    0.0000 O   0  0  0  0  0  0  0  0  0  0  0  0
    4.6783   -2.2060    0.0000 N   0  0  0  0  0  0  0  0  0  0  0  0
    4.9889    0.3540    0.0000 C   0  0  0  0  0  0  0  0  0  0  0  0
    4.6783   -0.5965    0.0000 C   0  0  0  0  0  0  0  0  0  0  0  0
    3.7320   -0.9013    0.0000 C   0  0  0  0  0  0  0  0  0  0  0  0
    5.9674    0.5602    0.0000 C   0  0  0  0  0  0  0  0  0  0  0  0
    3.7320   -1.9013    0.0000 C   0  0  0  0  0  0  0  0  0  0  0  0
    5.2619   -1.4013    0.0000 C   0  0  0  0  0  0  0  0  0  0  0  0
    6.2781    1.5107    0.0000 C   0  0  0  0  0  0  0  0  0  0  0  0
    2.8660   -0.4013    0.0000 C   0  0  0  0  0  0  0  0  0  0  0  0
    2.8660   -2.4013    0.0000 C   0  0  0  0  0  0  0  0  0  0  0  0
    2.0000   -0.9013    0.0000 C   0  0  0  0  0  0  0  0  0  0  0  0
    2.0000   -1.9013    0.0000 C   0  0  0  0  0  0  0  0  0  0  0  0
    7.2566    1.7169    0.0000 C   0  0  0  0  0  0  0  0  0  0  0  0
    4.9684    0.9736    0.0000 H   0  0  0  0  0  0  0  0  0  0  0  0
    4.3751    0.4413    0.0000 H   0  0  0  0  0  0  0  0  0  0  0  0
    5.9880   -0.0595    0.0000 H   0  0  0  0  0  0  0  0  0  0  0  0
    6.5812    0.4729    0.0000 H   0  0  0  0  0  0  0  0  0  0  0  0
    5.8819   -1.4013    0.0000 H   0  0  0  0  0  0  0  0  0  0  0  0
    6.2575    2.1304    0.0000 H   0  0  0  0  0  0  0  0  0  0  0  0
    5.6643    1.5981    0.0000 H   0  0  0  0  0  0  0  0  0  0  0  0
    4.8709   -2.7953    0.0000 H   0  0  0  0  0  0  0  0  0  0  0  0
    2.8660    0.2187    0.0000 H   0  0  0  0  0  0  0  0  0  0  0  0
    2.8660   -3.0213    0.0000 H   0  0  0  0  0  0  0  0  0  0  0  0
    1.4631   -0.5913    0.0000 H   0  0  0  0  0  0  0  0  0  0  0  0
    1.4631   -2.2113    0.0000 H   0  0  0  0  0  0  0  0  0  0  0  0
    8.1739    2.7953    0.0000 H   0  0  0  0  0  0  0  0  0  0  0  0
  1 15  1  0  0  0  0
  1 28  1  0  0  0  0
  2 15  2  0  0  0  0
  3  8  1  0  0  0  0
  3  9  1  0  0  0  0
  3 23  1  0  0  0  0
  4  5  1  0  0  0  0
  4  7  1  0  0  0  0
  4 16  1  0  0  0  0
  4 17  1  0  0  0  0
  5  6  1  0  0  0  0
  5  9  2  0  0  0  0
  6  8  1  0  0  0  0
  6 11  2  0  0  0  0
  7 10  1  0  0  0  0
  7 18  1  0  0  0  0
  7 19  1  0  0  0  0
  8 12  2  0  0  0  0
  9 20  1  0  0  0  0
 10 15  1  0  0  0  0
 10 21  1  0  0  0  0
 10 22  1  0  0  0  0
 11 13  1  0  0  0  0
 11 24  1  0  0  0  0
 12 14  1  0  0  0  0
 12 25  1  0  0  0  0
 13 14  2  0  0  0  0
 13 26  1  0  0  0  0
 14 27  1  0  0  0  0
M  END
> <PUBCHEM_COMPOUND_CID>
8617

> <PUBCHEM_COMPOUND_CANONICALIZED>
1

> <PUBCHEM_CACTVS_COMPLEXITY>
230

> <PUBCHEM_CACTVS_HBOND_ACCEPTOR>
2

> <PUBCHEM_CACTVS_HBOND_DONOR>
2

> <PUBCHEM_CACTVS_ROTATABLE_BOND>
4

> <PUBCHEM_CACTVS_SUBSKEYS>
AAADccByMAAAAAAAAAAAAAAAAAAAAWAAAAAwAAAAAAAAAFgB8AAAHgAQCAAADAjBngQ8yPLJkgCoAzT3TACCgCAxAiAI2aE4ZJgIIPLAkZGEYAhkkADIyAeYyPCOgAAAAAACAAAAAAAAAAQAAAAAAAAAAA==

> <PUBCHEM_IUPAC_OPENEYE_NAME>
4-(1H-indol-3-yl)butanoic acid

> <PUBCHEM_IUPAC_CAS_NAME>
4-(1H-indol-3-yl)butanoic acid

> <PUBCHEM_IUPAC_NAME_MARKUP>
4-(1<I>H</I>-indol-3-yl)butanoic acid

> <PUBCHEM_IUPAC_NAME>
4-(1H-indol-3-yl)butanoic acid

> <PUBCHEM_IUPAC_SYSTEMATIC_NAME>
4-(1H-indol-3-yl)butanoic acid

> <PUBCHEM_IUPAC_TRADITIONAL_NAME>
4-(1H-indol-3-yl)butyric acid

> <PUBCHEM_IUPAC_INCHI>
InChI=1S/C12H13NO2/c14-12(15)7-3-4-9-8-13-11-6-2-1-5-10(9)11/h1-2,5-6,8,13H,3-4,7H2,(H,14,15)

> <PUBCHEM_IUPAC_INCHIKEY>
JTEDVYBZBROSJT-UHFFFAOYSA-N

> <PUBCHEM_XLOGP3>
2.3

> <PUBCHEM_EXACT_MASS>
203.094629

> <PUBCHEM_MOLECULAR_FORMULA>
C12H13NO2

> <PUBCHEM_MOLECULAR_WEIGHT>
203.24

> <PUBCHEM_OPENEYE_CAN_SMILES>
C1=CC=C2C(=C1)C(=CN2)CCCC(=O)O

> <PUBCHEM_OPENEYE_ISO_SMILES>
C1=CC=C2C(=C1)C(=CN2)CCCC(=O)O

> <PUBCHEM_CACTVS_TPSA>
53.1

> <PUBCHEM_MONOISOTOPIC_WEIGHT>
203.094629

> <PUBCHEM_TOTAL_CHARGE>
0

> <PUBCHEM_HEAVY_ATOM_COUNT>
15

> <PUBCHEM_ATOM_DEF_STEREO_COUNT>
0

> <PUBCHEM_ATOM_UDEF_STEREO_COUNT>
0

> <PUBCHEM_BOND_DEF_STEREO_COUNT>
0

> <PUBCHEM_BOND_UDEF_STEREO_COUNT>
0

> <PUBCHEM_ISOTOPIC_ATOM_COUNT>
0

> <PUBCHEM_COMPONENT_COUNT>
1

> <PUBCHEM_CACTVS_TAUTO_COUNT>
-1

> <PUBCHEM_COORDINATE_TYPE>
1
5
255

> <PUBCHEM_BONDANNOTATIONS>
11  13  8
12  14  8
13  14  8
3  8  8
3  9  8
5  6  8
5  9  8
6  11  8
6  8  8
8  12  8

$$$$
8422
  -OEChem-04052116402D

 25 26  0     0  0  0  0  0  0999 V2000
    5.1350   -0.5173    0.0000 O   0  0  0  0  0  0  0  0  0  0  0  0
    2.5369   -0.0173    0.0000 O   0  0  0  0  0  0  0  0  0  0  0  0
    3.4030   -1.5173    0.0000 O   0  0  0  0  0  0  0  0  0  0  0  0
    7.7331   -0.0173    0.0000 C   0  0  0  0  0  0  0  0  0  0  0  0
    7.7331    0.9827    0.0000 C   0  0  0  0  0  0  0  0  0  0  0  0
    6.8671   -0.5173    0.0000 C   0  0  0  0  0  0  0  0  0  0  0  0
    6.0010   -0.0173    0.0000 C   0  0  0  0  0  0  0  0  0  0  0  0
    6.8671    1.4827    0.0000 C   0  0  0  0  0  0  0  0  0  0  0  0
    8.6270   -0.5520    0.0000 C   0  0  0  0  0  0  0  0  0  0  0  0
    6.0010    0.9827    0.0000 C   0  0  0  0  0  0  0  0  0  0  0  0
    8.6270    1.5173    0.0000 C   0  0  0  0  0  0  0  0  0  0  0  0
    9.5331   -0.0381    0.0000 C   0  0  0  0  0  0  0  0  0  0  0  0
    9.5331    1.0035    0.0000 C   0  0  0  0  0  0  0  0  0  0  0  0
    4.2690   -0.0173    0.0000 C   0  0  0  0  0  0  0  0  0  0  0  0
    3.4030   -0.5173    0.0000 C   0  0  0  0  0  0  0  0  0  0  0  0
    6.8671   -1.1373    0.0000 H   0  0  0  0  0  0  0  0  0  0  0  0
    6.8671    2.1027    0.0000 H   0  0  0  0  0  0  0  0  0  0  0  0
    5.4641    1.2927    0.0000 H   0  0  0  0  0  0  0  0  0  0  0  0
    8.6199   -1.1720    0.0000 H   0  0  0  0  0  0  0  0  0  0  0  0
    8.6199    2.1373    0.0000 H   0  0  0  0  0  0  0  0  0  0  0  0
   10.0688   -0.3502    0.0000 H   0  0  0  0  0  0  0  0  0  0  0  0
   10.0688    1.3156    0.0000 H   0  0  0  0  0  0  0  0  0  0  0  0
    4.6675    0.4576    0.0000 H   0  0  0  0  0  0  0  0  0  0  0  0
    3.8705    0.4576    0.0000 H   0  0  0  0  0  0  0  0  0  0  0  0
    2.0000   -0.3273    0.0000 H   0  0  0  0  0  0  0  0  0  0  0  0
  1  7  1  0  0  0  0
  1 14  1  0  0  0  0
  2 15  1  0  0  0  0
  2 25  1  0  0  0  0
  3 15  2  0  0  0  0
  4  5  1  0  0  0  0
  4  6  1  0  0  0  0
  4  9  2  0  0  0  0
  5  8  1  0  0  0  0
  5 11  2  0  0  0  0
  6  7  2  0  0  0  0
  6 16  1  0  0  0  0
  7 10  1  0  0  0  0
  8 10  2  0  0  0  0
  8 17  1  0  0  0  0
  9 12  1  0  0  0  0
  9 19  1  0  0  0  0
 10 18  1  0  0  0  0
 11 13  1  0  0  0  0
 11 20  1  0  0  0  0
 12 13  2  0  0  0  0
 12 21  1  0  0  0  0
 13 22  1  0  0  0  0
 14 15  1  0  0  0  0
 14 23  1  0  0  0  0
 14 24  1  0  0  0  0
M  END
> <PUBCHEM_COMPOUND_CID>
8422

> <PUBCHEM_COMPOUND_CANONICALIZED>
1

> <PUBCHEM_CACTVS_COMPLEXITY>
227

> <PUBCHEM_CACTVS_HBOND_ACCEPTOR>
3

> <PUBCHEM_CACTVS_HBOND_DONOR>
1

> <PUBCHEM_CACTVS_ROTATABLE_BOND>
3

> <PUBCHEM_CACTVS_SUBSKEYS>
AAADccBwMAAAAAAAAAAAAAAAAAAAAAAAAAAwYAAAAAAAAADBUAAAGgAACAAADASgmAIwDsAABgCIAiDSCAICCAAgIAAIiABGCIgNJiKEMR6COCCkwBELqAeAwLAOoAABAAAQAABAAAIAACAAAAAAAAAAAA==

> <PUBCHEM_IUPAC_OPENEYE_NAME>
2-(2-naphthyloxy)acetic acid

> <PUBCHEM_IUPAC_CAS_NAME>
2-(2-naphthalenyloxy)acetic acid

> <PUBCHEM_IUPAC_NAME_MARKUP>
2-naphthalen-2-yloxyacetic acid

> <PUBCHEM_IUPAC_NAME>
2-naphthalen-2-yloxyacetic acid

> <PUBCHEM_IUPAC_SYSTEMATIC_NAME>
2-naphthalen-2-yloxyethanoic acid

> <PUBCHEM_IUPAC_TRADITIONAL_NAME>
2-(2-naphthoxy)acetic acid

> <PUBCHEM_IUPAC_INCHI>
InChI=1S/C12H10O3/c13-12(14)8-15-11-6-5-9-3-1-2-4-10(9)7-11/h1-7H,8H2,(H,13,14)

> <PUBCHEM_IUPAC_INCHIKEY>
RZCJYMOBWVJQGV-UHFFFAOYSA-N

> <PUBCHEM_XLOGP3>
2.5

> <PUBCHEM_EXACT_MASS>
202.062994

> <PUBCHEM_MOLECULAR_FORMULA>
C12H10O3

> <PUBCHEM_MOLECULAR_WEIGHT>
202.21

> <PUBCHEM_OPENEYE_CAN_SMILES>
C1=CC=C2C=C(C=CC2=C1)OCC(=O)O

> <PUBCHEM_OPENEYE_ISO_SMILES>
C1=CC=C2C=C(C=CC2=C1)OCC(=O)O

> <PUBCHEM_CACTVS_TPSA>
46.5

> <PUBCHEM_MONOISOTOPIC_WEIGHT>
202.062994

> <PUBCHEM_TOTAL_CHARGE>
0

> <PUBCHEM_HEAVY_ATOM_COUNT>
15

> <PUBCHEM_ATOM_DEF_STEREO_COUNT>
0

> <PUBCHEM_ATOM_UDEF_STEREO_COUNT>
0

> <PUBCHEM_BOND_DEF_STEREO_COUNT>
0

> <PUBCHEM_BOND_UDEF_STEREO_COUNT>
0

> <PUBCHEM_ISOTOPIC_ATOM_COUNT>
0

> <PUBCHEM_COMPONENT_COUNT>
1

> <PUBCHEM_CACTVS_TAUTO_COUNT>
-1

> <PUBCHEM_COORDINATE_TYPE>
1
5
255

> <PUBCHEM_BONDANNOTATIONS>
11  13  8
12  13  8
4  5  8
4  6  8
4  9  8
5  11  8
5  8  8
6  7  8
7  10  8
8  10  8
9  12  8

$$$$
7628
  -OEChem-04052116402D

  7  6  0     0  0  0  0  0  0999 V2000
    4.2690    0.9050    0.0000 O   0  0  0  0  0  0  0  0  0  0  0  0
    2.5369    0.9050    0.0000 O   0  0  0  0  0  0  0  0  0  0  0  0
    3.4030   -0.5950    0.0000 O   0  0  0  0  0  0  0  0  0  0  0  0
    3.4030    0.4050    0.0000 B   0  0  0  0  0  0  0  0  0  0  0  0
    4.8059    0.5950    0.0000 H   0  0  0  0  0  0  0  0  0  0  0  0
    2.0000    0.5950    0.0000 H   0  0  0  0  0  0  0  0  0  0  0  0
    2.8660   -0.9050    0.0000 H   0  0  0  0  0  0  0  0  0  0  0  0
  1  4  1  0  0  0  0
  1  5  1  0  0  0  0
  2  4  1  0  0  0  0
  2  6  1  0  0  0  0
  3  4  1  0  0  0  0
  3  7  1  0  0  0  0
M  END
> <PUBCHEM_COMPOUND_CID>
7628

> <PUBCHEM_COMPOUND_CANONICALIZED>
1

> <PUBCHEM_CACTVS_COMPLEXITY>
8

> <PUBCHEM_CACTVS_HBOND_ACCEPTOR>
3

> <PUBCHEM_CACTVS_HBOND_DONOR>
3

> <PUBCHEM_CACTVS_ROTATABLE_BOND>
0

> <PUBCHEM_CACTVS_SUBSKEYS>
AAADcQIAMAAAAAAAAAAAAAAAAAAAAAAAAAAAAAAAAAAAAAAAAAAIAAAACAAAAAAAAAAAAAAAAAAAAAAAAAAAAAAAAAAAAAAAAAAAAAAAAAAAAAAAAAAAAAAAAAAAAAAAAAAAAAAAAAAAAAAAAAAAAAAAAA==

> <PUBCHEM_IUPAC_OPENEYE_NAME>
boric acid

> <PUBCHEM_IUPAC_CAS_NAME>
boric acid

> <PUBCHEM_IUPAC_NAME_MARKUP>
boric acid

> <PUBCHEM_IUPAC_NAME>
boric acid

> <PUBCHEM_IUPAC_SYSTEMATIC_NAME>
boric acid

> <PUBCHEM_IUPAC_TRADITIONAL_NAME>
boric acid

> <PUBCHEM_IUPAC_INCHI>
InChI=1S/BH3O3/c2-1(3)4/h2-4H

> <PUBCHEM_IUPAC_INCHIKEY>
KGBXLFKZBHKPEV-UHFFFAOYSA-N

> <PUBCHEM_EXACT_MASS>
62.017524

> <PUBCHEM_MOLECULAR_FORMULA>
BH3O3

> <PUBCHEM_MOLECULAR_WEIGHT>
61.84

> <PUBCHEM_OPENEYE_CAN_SMILES>
B(O)(O)O

> <PUBCHEM_OPENEYE_ISO_SMILES>
B(O)(O)O

> <PUBCHEM_CACTVS_TPSA>
60.7

> <PUBCHEM_MONOISOTOPIC_WEIGHT>
62.017524

> <PUBCHEM_TOTAL_CHARGE>
0

> <PUBCHEM_HEAVY_ATOM_COUNT>
4

> <PUBCHEM_ATOM_DEF_STEREO_COUNT>
0

> <PUBCHEM_ATOM_UDEF_STEREO_COUNT>
0

> <PUBCHEM_BOND_DEF_STEREO_COUNT>
0

> <PUBCHEM_BOND_UDEF_STEREO_COUNT>
0

> <PUBCHEM_ISOTOPIC_ATOM_COUNT>
0

> <PUBCHEM_COMPONENT_COUNT>
1

> <PUBCHEM_CACTVS_TAUTO_COUNT>
-1

> <PUBCHEM_COORDINATE_TYPE>
1
5
255

$$$$
7591
  -OEChem-04052116402D

 23 23  0     0  0  0  0  0  0999 V2000
    3.7320    1.5000    0.0000 O   0  0  0  0  0  0  0  0  0  0  0  0
    4.5981    0.0000    0.0000 O   0  0  0  0  0  0  0  0  0  0  0  0
    2.8660    0.0000    0.0000 N   0  0  0  0  0  0  0  0  0  0  0  0
    2.8660   -1.0000    0.0000 C   0  0  0  0  0  0  0  0  0  0  0  0
    2.0000   -1.5000    0.0000 C   0  0  0  0  0  0  0  0  0  0  0  0
    3.7320   -1.5000    0.0000 C   0  0  0  0  0  0  0  0  0  0  0  0
    4.5981    2.0000    0.0000 C   0  0  0  0  0  0  0  0  0  0  0  0
    2.0000   -2.5000    0.0000 C   0  0  0  0  0  0  0  0  0  0  0  0
    3.7320   -2.5000    0.0000 C   0  0  0  0  0  0  0  0  0  0  0  0
    2.8660   -3.0000    0.0000 C   0  0  0  0  0  0  0  0  0  0  0  0
    3.7320    0.5000    0.0000 C   0  0  0  0  0  0  0  0  0  0  0  0
    4.5981    3.0000    0.0000 C   0  0  0  0  0  0  0  0  0  0  0  0
    1.4631   -1.1900    0.0000 H   0  0  0  0  0  0  0  0  0  0  0  0
    4.2690   -1.1900    0.0000 H   0  0  0  0  0  0  0  0  0  0  0  0
    2.3291    0.3100    0.0000 H   0  0  0  0  0  0  0  0  0  0  0  0
    4.8101    1.4174    0.0000 H   0  0  0  0  0  0  0  0  0  0  0  0
    5.2087    2.1077    0.0000 H   0  0  0  0  0  0  0  0  0  0  0  0
    1.4631   -2.8100    0.0000 H   0  0  0  0  0  0  0  0  0  0  0  0
    4.2690   -2.8100    0.0000 H   0  0  0  0  0  0  0  0  0  0  0  0
    2.8660   -3.6200    0.0000 H   0  0  0  0  0  0  0  0  0  0  0  0
    5.2181    3.0000    0.0000 H   0  0  0  0  0  0  0  0  0  0  0  0
    4.5981    3.6200    0.0000 H   0  0  0  0  0  0  0  0  0  0  0  0
    3.9781    3.0000    0.0000 H   0  0  0  0  0  0  0  0  0  0  0  0
  1  7  1  0  0  0  0
  1 11  1  0  0  0  0
  2 11  2  0  0  0  0
  3  4  1  0  0  0  0
  3 11  1  0  0  0  0
  3 15  1  0  0  0  0
  4  5  2  0  0  0  0
  4  6  1  0  0  0  0
  5  8  1  0  0  0  0
  5 13  1  0  0  0  0
  6  9  2  0  0  0  0
  6 14  1  0  0  0  0
  7 12  1  0  0  0  0
  7 16  1  0  0  0  0
  7 17  1  0  0  0  0
  8 10  2  0  0  0  0
  8 18  1  0  0  0  0
  9 10  1  0  0  0  0
  9 19  1  0  0  0  0
 10 20  1  0  0  0  0
 12 21  1  0  0  0  0
 12 22  1  0  0  0  0
 12 23  1  0  0  0  0
M  END
> <PUBCHEM_COMPOUND_CID>
7591

> <PUBCHEM_COMPOUND_CANONICALIZED>
1

> <PUBCHEM_CACTVS_COMPLEXITY>
142

> <PUBCHEM_CACTVS_HBOND_ACCEPTOR>
2

> <PUBCHEM_CACTVS_HBOND_DONOR>
1

> <PUBCHEM_CACTVS_ROTATABLE_BOND>
3

> <PUBCHEM_CACTVS_SUBSKEYS>
AAADccByMAAAAAAAAAAAAAAAAAAAAAAAAAAwAAAAAAAAAAABAAAAHgAQAAAACAihkAIyyILABACIACRCWACCAAAhAgAIiAAAZIkIICLAkZGMIAhglABIyAcQAAAAAAAAAAAAAAAAAAAAAAAAAAAAAAAAAA==

> <PUBCHEM_IUPAC_OPENEYE_NAME>
ethyl N-phenylcarbamate

> <PUBCHEM_IUPAC_CAS_NAME>
N-phenylcarbamic acid ethyl ester

> <PUBCHEM_IUPAC_NAME_MARKUP>
ethyl <I>N</I>-phenylcarbamate

> <PUBCHEM_IUPAC_NAME>
ethyl N-phenylcarbamate

> <PUBCHEM_IUPAC_SYSTEMATIC_NAME>
ethyl N-phenylcarbamate

> <PUBCHEM_IUPAC_TRADITIONAL_NAME>
N-phenylcarbamic acid ethyl ester

> <PUBCHEM_IUPAC_INCHI>
InChI=1S/C9H11NO2/c1-2-12-9(11)10-8-6-4-3-5-7-8/h3-7H,2H2,1H3,(H,10,11)

> <PUBCHEM_IUPAC_INCHIKEY>
LBKPGNUOUPTQKA-UHFFFAOYSA-N

> <PUBCHEM_XLOGP3>
2.3

> <PUBCHEM_EXACT_MASS>
165.078979

> <PUBCHEM_MOLECULAR_FORMULA>
C9H11NO2

> <PUBCHEM_MOLECULAR_WEIGHT>
165.19

> <PUBCHEM_OPENEYE_CAN_SMILES>
CCOC(=O)NC1=CC=CC=C1

> <PUBCHEM_OPENEYE_ISO_SMILES>
CCOC(=O)NC1=CC=CC=C1

> <PUBCHEM_CACTVS_TPSA>
38.3

> <PUBCHEM_MONOISOTOPIC_WEIGHT>
165.078979

> <PUBCHEM_TOTAL_CHARGE>
0

> <PUBCHEM_HEAVY_ATOM_COUNT>
12

> <PUBCHEM_ATOM_DEF_STEREO_COUNT>
0

> <PUBCHEM_ATOM_UDEF_STEREO_COUNT>
0

> <PUBCHEM_BOND_DEF_STEREO_COUNT>
0

> <PUBCHEM_BOND_UDEF_STEREO_COUNT>
0

> <PUBCHEM_ISOTOPIC_ATOM_COUNT>
0

> <PUBCHEM_COMPONENT_COUNT>
1

> <PUBCHEM_CACTVS_TAUTO_COUNT>
-1

> <PUBCHEM_COORDINATE_TYPE>
1
5
255

> <PUBCHEM_BONDANNOTATIONS>
4  5  8
4  6  8
5  8  8
6  9  8
8  10  8
9  10  8

$$$$
6948
  -OEChem-04052116402D

 15 15  0     0  0  0  0  0  0999 V2000
    2.0000   -0.0600    0.0000 I   0  0  0  0  0  0  0  0  0  0  0  0
    2.0000   -2.0600    0.0000 I   0  0  0  0  0  0  0  0  0  0  0  0
    5.4641   -2.0600    0.0000 I   0  0  0  0  0  0  0  0  0  0  0  0
    4.5981    1.4400    0.0000 O   0  0  0  0  0  0  0  0  0  0  0  0
    2.8660    1.4400    0.0000 O   0  0  0  0  0  0  0  0  0  0  0  0
    3.7320   -0.0600    0.0000 C   0  0  0  0  0  0  0  0  0  0  0  0
    2.8660   -0.5600    0.0000 C   0  0  0  0  0  0  0  0  0  0  0  0
    4.5981   -0.5600    0.0000 C   0  0  0  0  0  0  0  0  0  0  0  0
    2.8660   -1.5600    0.0000 C   0  0  0  0  0  0  0  0  0  0  0  0
    4.5981   -1.5600    0.0000 C   0  0  0  0  0  0  0  0  0  0  0  0
    3.7320   -2.0600    0.0000 C   0  0  0  0  0  0  0  0  0  0  0  0
    3.7320    0.9400    0.0000 C   0  0  0  0  0  0  0  0  0  0  0  0
    5.1350   -0.2500    0.0000 H   0  0  0  0  0  0  0  0  0  0  0  0
    3.7320   -2.6800    0.0000 H   0  0  0  0  0  0  0  0  0  0  0  0
    4.5981    2.0600    0.0000 H   0  0  0  0  0  0  0  0  0  0  0  0
  1  7  1  0  0  0  0
  2  9  1  0  0  0  0
  3 10  1  0  0  0  0
  4 12  1  0  0  0  0
  4 15  1  0  0  0  0
  5 12  2  0  0  0  0
  6  7  2  0  0  0  0
  6  8  1  0  0  0  0
  6 12  1  0  0  0  0
  7  9  1  0  0  0  0
  8 10  2  0  0  0  0
  8 13  1  0  0  0  0
  9 11  2  0  0  0  0
 10 11  1  0  0  0  0
 11 14  1  0  0  0  0
M  END
> <PUBCHEM_COMPOUND_CID>
6948

> <PUBCHEM_COMPOUND_CANONICALIZED>
1

> <PUBCHEM_CACTVS_COMPLEXITY>
186

> <PUBCHEM_CACTVS_HBOND_ACCEPTOR>
2

> <PUBCHEM_CACTVS_HBOND_DONOR>
1

> <PUBCHEM_CACTVS_ROTATABLE_BOND>
1

> <PUBCHEM_CACTVS_SUBSKEYS>
AAADcQBgMAAAAwAAAAAAAAAAAAAAAAAAAAAwAAAAAAAAAAABAAAAGgAgCAAADACCmAAwCIAAAgCIAiDSCAACAAAkAAAAiAEACMgIJjKAFRCAcQAkwAEImYeIyCCOAAAAAAAAAAAAAAAAAAAAAAAAAAAAAA==

> <PUBCHEM_IUPAC_OPENEYE_NAME>
2,3,5-triiodobenzoic acid

> <PUBCHEM_IUPAC_CAS_NAME>
2,3,5-triiodobenzoic acid

> <PUBCHEM_IUPAC_NAME_MARKUP>
2,3,5-triiodobenzoic acid

> <PUBCHEM_IUPAC_NAME>
2,3,5-triiodobenzoic acid

> <PUBCHEM_IUPAC_SYSTEMATIC_NAME>
2,3,5-tris(iodanyl)benzoic acid

> <PUBCHEM_IUPAC_TRADITIONAL_NAME>
2,3,5-triiodobenzoic acid

> <PUBCHEM_IUPAC_INCHI>
InChI=1S/C7H3I3O2/c8-3-1-4(7(11)12)6(10)5(9)2-3/h1-2H,(H,11,12)

> <PUBCHEM_IUPAC_INCHIKEY>
ZMZGFLUUZLELNE-UHFFFAOYSA-N

> <PUBCHEM_XLOGP3_AA>
3.4

> <PUBCHEM_EXACT_MASS>
499.7267

> <PUBCHEM_MOLECULAR_FORMULA>
C7H3I3O2

> <PUBCHEM_MOLECULAR_WEIGHT>
499.81

> <PUBCHEM_OPENEYE_CAN_SMILES>
C1=C(C=C(C(=C1C(=O)O)I)I)I

> <PUBCHEM_OPENEYE_ISO_SMILES>
C1=C(C=C(C(=C1C(=O)O)I)I)I

> <PUBCHEM_CACTVS_TPSA>
37.3

> <PUBCHEM_MONOISOTOPIC_WEIGHT>
499.7267

> <PUBCHEM_TOTAL_CHARGE>
0

> <PUBCHEM_HEAVY_ATOM_COUNT>
12

> <PUBCHEM_ATOM_DEF_STEREO_COUNT>
0

> <PUBCHEM_ATOM_UDEF_STEREO_COUNT>
0

> <PUBCHEM_BOND_DEF_STEREO_COUNT>
0

> <PUBCHEM_BOND_UDEF_STEREO_COUNT>
0

> <PUBCHEM_ISOTOPIC_ATOM_COUNT>
0

> <PUBCHEM_COMPONENT_COUNT>
1

> <PUBCHEM_CACTVS_TAUTO_COUNT>
-1

> <PUBCHEM_COORDINATE_TYPE>
1
5
255

> <PUBCHEM_BONDANNOTATIONS>
10  11  8
6  7  8
6  8  8
7  9  8
8  10  8
9  11  8

$$$$
6862
  -OEChem-04052116402D

 24 25  0     0  0  0  0  0  0999 V2000
    2.8660   -2.1123    0.0000 O   0  0  0  0  0  0  0  0  0  0  0  0
    2.0000   -0.6123    0.0000 O   0  0  0  0  0  0  0  0  0  0  0  0
    4.5981    0.8877    0.0000 C   0  0  0  0  0  0  0  0  0  0  0  0
    3.7320    0.3877    0.0000 C   0  0  0  0  0  0  0  0  0  0  0  0
    4.5981    1.8877    0.0000 C   0  0  0  0  0  0  0  0  0  0  0  0
    3.7320   -0.6123    0.0000 C   0  0  0  0  0  0  0  0  0  0  0  0
    2.8660    0.8877    0.0000 C   0  0  0  0  0  0  0  0  0  0  0  0
    5.4920    0.3530    0.0000 C   0  0  0  0  0  0  0  0  0  0  0  0
    3.7320    2.3877    0.0000 C   0  0  0  0  0  0  0  0  0  0  0  0
    5.4920    2.4223    0.0000 C   0  0  0  0  0  0  0  0  0  0  0  0
    2.8660    1.8877    0.0000 C   0  0  0  0  0  0  0  0  0  0  0  0
    6.3981    0.8669    0.0000 C   0  0  0  0  0  0  0  0  0  0  0  0
    6.3981    1.9085    0.0000 C   0  0  0  0  0  0  0  0  0  0  0  0
    2.8660   -1.1123    0.0000 C   0  0  0  0  0  0  0  0  0  0  0  0
    3.9441   -1.1949    0.0000 H   0  0  0  0  0  0  0  0  0  0  0  0
    4.3426   -0.5047    0.0000 H   0  0  0  0  0  0  0  0  0  0  0  0
    2.3291    0.5777    0.0000 H   0  0  0  0  0  0  0  0  0  0  0  0
    5.4848   -0.2670    0.0000 H   0  0  0  0  0  0  0  0  0  0  0  0
    3.7320    3.0077    0.0000 H   0  0  0  0  0  0  0  0  0  0  0  0
    5.4848    3.0423    0.0000 H   0  0  0  0  0  0  0  0  0  0  0  0
    2.3291    2.1977    0.0000 H   0  0  0  0  0  0  0  0  0  0  0  0
    6.9338    0.5548    0.0000 H   0  0  0  0  0  0  0  0  0  0  0  0
    6.9338    2.2205    0.0000 H   0  0  0  0  0  0  0  0  0  0  0  0
    2.3291   -2.4223    0.0000 H   0  0  0  0  0  0  0  0  0  0  0  0
  1 14  1  0  0  0  0
  1 24  1  0  0  0  0
  2 14  2  0  0  0  0
  3  4  1  0  0  0  0
  3  5  1  0  0  0  0
  3  8  2  0  0  0  0
  4  6  1  0  0  0  0
  4  7  2  0  0  0  0
  5  9  1  0  0  0  0
  5 10  2  0  0  0  0
  6 14  1  0  0  0  0
  6 15  1  0  0  0  0
  6 16  1  0  0  0  0
  7 11  1  0  0  0  0
  7 17  1  0  0  0  0
  8 12  1  0  0  0  0
  8 18  1  0  0  0  0
  9 11  2  0  0  0  0
  9 19  1  0  0  0  0
 10 13  1  0  0  0  0
 10 20  1  0  0  0  0
 11 21  1  0  0  0  0
 12 13  2  0  0  0  0
 12 22  1  0  0  0  0
 13 23  1  0  0  0  0
M  END
> <PUBCHEM_COMPOUND_CID>
6862

> <PUBCHEM_COMPOUND_CANONICALIZED>
1

> <PUBCHEM_CACTVS_COMPLEXITY>
212

> <PUBCHEM_CACTVS_HBOND_ACCEPTOR>
2

> <PUBCHEM_CACTVS_HBOND_DONOR>
1

> <PUBCHEM_CACTVS_ROTATABLE_BOND>
2

> <PUBCHEM_CACTVS_SUBSKEYS>
AAADccBwMAAAAAAAAAAAAAAAAAAAAAAAAAAwYAAAAAAAAADBUAAAGgAACAAADACAmAAwCMAAAgCIAiDSCAACAAAgAAAIiAEAAIgIIDKAFRCAYAAkwAEIiAeIyPCOgAACAAAQAAAAAAQAACAAAAAAAAAAAA==

> <PUBCHEM_IUPAC_OPENEYE_NAME>
2-(1-naphthyl)acetic acid

> <PUBCHEM_IUPAC_CAS_NAME>
2-(1-naphthalenyl)acetic acid

> <PUBCHEM_IUPAC_NAME_MARKUP>
2-naphthalen-1-ylacetic acid

> <PUBCHEM_IUPAC_NAME>
2-naphthalen-1-ylacetic acid

> <PUBCHEM_IUPAC_SYSTEMATIC_NAME>
2-naphthalen-1-ylethanoic acid

> <PUBCHEM_IUPAC_TRADITIONAL_NAME>
2-(1-naphthyl)acetic acid

> <PUBCHEM_IUPAC_INCHI>
InChI=1S/C12H10O2/c13-12(14)8-10-6-3-5-9-4-1-2-7-11(9)10/h1-7H,8H2,(H,13,14)

> <PUBCHEM_IUPAC_INCHIKEY>
PRPINYUDVPFIRX-UHFFFAOYSA-N

> <PUBCHEM_XLOGP3>
2.7

> <PUBCHEM_EXACT_MASS>
186.06808

> <PUBCHEM_MOLECULAR_FORMULA>
C12H10O2

> <PUBCHEM_MOLECULAR_WEIGHT>
186.21

> <PUBCHEM_OPENEYE_CAN_SMILES>
C1=CC=C2C(=C1)C=CC=C2CC(=O)O

> <PUBCHEM_OPENEYE_ISO_SMILES>
C1=CC=C2C(=C1)C=CC=C2CC(=O)O

> <PUBCHEM_CACTVS_TPSA>
37.3

> <PUBCHEM_MONOISOTOPIC_WEIGHT>
186.06808

> <PUBCHEM_TOTAL_CHARGE>
0

> <PUBCHEM_HEAVY_ATOM_COUNT>
14

> <PUBCHEM_ATOM_DEF_STEREO_COUNT>
0

> <PUBCHEM_ATOM_UDEF_STEREO_COUNT>
0

> <PUBCHEM_BOND_DEF_STEREO_COUNT>
0

> <PUBCHEM_BOND_UDEF_STEREO_COUNT>
0

> <PUBCHEM_ISOTOPIC_ATOM_COUNT>
0

> <PUBCHEM_COMPONENT_COUNT>
1

> <PUBCHEM_CACTVS_TAUTO_COUNT>
-1

> <PUBCHEM_COORDINATE_TYPE>
1
5
255

> <PUBCHEM_BONDANNOTATIONS>
10  13  8
12  13  8
3  4  8
3  5  8
3  8  8
4  7  8
5  10  8
5  9  8
7  11  8
8  12  8
9  11  8

$$$$
6720
  -OEChem-04052116402D

 14 14  0     0  0  0  0  0  0999 V2000
    2.0000    0.7500    0.0000 Cl  0  0  0  0  0  0  0  0  0  0  0  0
    5.4641    0.7500    0.0000 Cl  0  0  0  0  0  0  0  0  0  0  0  0
    5.4641   -1.2500    0.0000 Cl  0  0  0  0  0  0  0  0  0  0  0  0
    2.0000   -1.2500    0.0000 Cl  0  0  0  0  0  0  0  0  0  0  0  0
    3.7320   -2.2500    0.0000 Cl  0  0  0  0  0  0  0  0  0  0  0  0
    4.5981    2.2500    0.0000 O   0  5  0  0  0  0  0  0  0  0  0  0
    2.8660    2.2500    0.0000 O   0  0  0  0  0  0  0  0  0  0  0  0
    3.7320    1.7500    0.0000 N   0  3  0  0  0  0  0  0  0  0  0  0
    3.7320    0.7500    0.0000 C   0  0  0  0  0  0  0  0  0  0  0  0
    2.8660    0.2500    0.0000 C   0  0  0  0  0  0  0  0  0  0  0  0
    4.5981    0.2500    0.0000 C   0  0  0  0  0  0  0  0  0  0  0  0
    4.5981   -0.7500    0.0000 C   0  0  0  0  0  0  0  0  0  0  0  0
    2.8660   -0.7500    0.0000 C   0  0  0  0  0  0  0  0  0  0  0  0
    3.7320   -1.2500    0.0000 C   0  0  0  0  0  0  0  0  0  0  0  0
  1 10  1  0  0  0  0
  2 11  1  0  0  0  0
  3 12  1  0  0  0  0
  4 13  1  0  0  0  0
  5 14  1  0  0  0  0
  6  8  1  0  0  0  0
  7  8  2  0  0  0  0
  8  9  1  0  0  0  0
  9 10  2  0  0  0  0
  9 11  1  0  0  0  0
 10 13  1  0  0  0  0
 11 12  2  0  0  0  0
 12 14  1  0  0  0  0
 13 14  2  0  0  0  0
M  CHG  2   6  -1   8   1
M  END
> <PUBCHEM_COMPOUND_CID>
6720

> <PUBCHEM_COMPOUND_CANONICALIZED>
1

> <PUBCHEM_CACTVS_COMPLEXITY>
219

> <PUBCHEM_CACTVS_HBOND_ACCEPTOR>
2

> <PUBCHEM_CACTVS_HBOND_DONOR>
0

> <PUBCHEM_CACTVS_ROTATABLE_BOND>
0

> <PUBCHEM_CACTVS_SUBSKEYS>
AAADcQBiMAAHAAAAAAAAAAAAAAAAAAAAAAAwAAAAAAAAAAABAAAADAIEAAAACAoBECAAwIAQQACBAARAQwCCAAAgBAAgikAARooIICKBkpGAIABggAAIyAcQAAAAAABQAAKAABQAAKAABQAAKAAAAAAAAA==

> <PUBCHEM_IUPAC_OPENEYE_NAME>
1,2,3,4,5-pentachloro-6-nitro-benzene

> <PUBCHEM_IUPAC_CAS_NAME>
1,2,3,4,5-pentachloro-6-nitrobenzene

> <PUBCHEM_IUPAC_NAME_MARKUP>
1,2,3,4,5-pentachloro-6-nitrobenzene

> <PUBCHEM_IUPAC_NAME>
1,2,3,4,5-pentachloro-6-nitrobenzene

> <PUBCHEM_IUPAC_SYSTEMATIC_NAME>
1,2,3,4,5-pentakis(chloranyl)-6-nitro-benzene

> <PUBCHEM_IUPAC_TRADITIONAL_NAME>
1,2,3,4,5-pentachloro-6-nitro-benzene

> <PUBCHEM_IUPAC_INCHI>
InChI=1S/C6Cl5NO2/c7-1-2(8)4(10)6(12(13)14)5(11)3(1)9

> <PUBCHEM_IUPAC_INCHIKEY>
LKPLKUMXSAEKID-UHFFFAOYSA-N

> <PUBCHEM_XLOGP3>
4.2

> <PUBCHEM_EXACT_MASS>
294.834217

> <PUBCHEM_MOLECULAR_FORMULA>
C6Cl5NO2

> <PUBCHEM_MOLECULAR_WEIGHT>
295.3

> <PUBCHEM_OPENEYE_CAN_SMILES>
C1(=C(C(=C(C(=C1Cl)Cl)Cl)Cl)Cl)[N+](=O)[O-]

> <PUBCHEM_OPENEYE_ISO_SMILES>
C1(=C(C(=C(C(=C1Cl)Cl)Cl)Cl)Cl)[N+](=O)[O-]

> <PUBCHEM_CACTVS_TPSA>
45.8

> <PUBCHEM_MONOISOTOPIC_WEIGHT>
292.837167

> <PUBCHEM_TOTAL_CHARGE>
0

> <PUBCHEM_HEAVY_ATOM_COUNT>
14

> <PUBCHEM_ATOM_DEF_STEREO_COUNT>
0

> <PUBCHEM_ATOM_UDEF_STEREO_COUNT>
0

> <PUBCHEM_BOND_DEF_STEREO_COUNT>
0

> <PUBCHEM_BOND_UDEF_STEREO_COUNT>
0

> <PUBCHEM_ISOTOPIC_ATOM_COUNT>
0

> <PUBCHEM_COMPONENT_COUNT>
1

> <PUBCHEM_CACTVS_TAUTO_COUNT>
-1

> <PUBCHEM_COORDINATE_TYPE>
1
5
255

> <PUBCHEM_BONDANNOTATIONS>
10  13  8
11  12  8
12  14  8
13  14  8
9  10  8
9  11  8

$$$$
6466
  -OEChem-04052116402D

 47 51  0     1  0  0  0  0  0999 V2000
    5.3027    0.5374    0.0000 O   0  0  0  0  0  0  0  0  0  0  0  0
    9.0640   -1.7746    0.0000 O   0  0  0  0  0  0  0  0  0  0  0  0
    2.3580   -0.5632    0.0000 O   0  0  0  0  0  0  0  0  0  0  0  0
    2.8808    1.0940    0.0000 O   0  0  0  0  0  0  0  0  0  0  0  0
    6.3795    1.7658    0.0000 O   0  0  0  0  0  0  0  0  0  0  0  0
    4.6536    1.6203    0.0000 O   0  0  0  0  0  0  0  0  0  0  0  0
    6.3708   -0.3508    0.0000 C   0  0  1  0  0  0  0  0  0  0  0  0
    6.0688   -1.2180    0.0000 C   0  0  2  0  0  0  0  0  0  0  0  0
    4.8938   -0.3224    0.0000 C   0  0  2  0  0  0  0  0  0  0  0  0
    5.1568   -1.1965    0.0000 C   0  0  2  0  0  0  0  0  0  0  0  0
    5.6426    0.1984    0.0000 C   0  0  2  0  0  0  0  0  0  0  0  0
    7.0668   -1.1832    0.0000 C   0  0  0  0  0  0  0  0  0  0  0  0
    3.9765   -0.1064    0.0000 C   0  0  1  0  0  0  0  0  0  0  0  0
    8.1197   -1.4458    0.0000 C   0  0  2  0  0  0  0  0  0  0  0  0
    7.2376   -0.0462    0.0000 C   0  0  0  0  0  0  0  0  0  0  0  0
    6.5591   -1.9946    0.0000 C   0  0  0  0  0  0  0  0  0  0  0  0
    7.4714   -2.0958    0.0000 C   0  0  0  0  0  0  0  0  0  0  0  0
    8.0153   -0.5332    0.0000 C   0  0  0  0  0  0  0  0  0  0  0  0
    4.5190   -1.9110    0.0000 C   0  0  0  0  0  0  0  0  0  0  0  0
    3.3314   -0.7926    0.0000 C   0  0  2  0  0  0  0  0  0  0  0  0
    3.7116    0.5374    0.0000 C   0  0  0  0  0  0  0  0  0  0  0  0
    5.5586    1.1949    0.0000 C   0  0  0  0  0  0  0  0  0  0  0  0
    2.9930    0.0748    0.0000 C   0  0  0  0  0  0  0  0  0  0  0  0
    3.6028   -1.6953    0.0000 C   0  0  0  0  0  0  0  0  0  0  0  0
    8.8189    0.0619    0.0000 C   0  0  0  0  0  0  0  0  0  0  0  0
    5.6497   -1.9575    0.0000 H   0  0  0  0  0  0  0  0  0  0  0  0
    4.4587    0.4078    0.0000 H   0  0  0  0  0  0  0  0  0  0  0  0
    6.1854    0.4980    0.0000 H   0  0  0  0  0  0  0  0  0  0  0  0
    7.1096   -1.8018    0.0000 H   0  0  0  0  0  0  0  0  0  0  0  0
    6.4917   -1.4148    0.0000 H   0  0  0  0  0  0  0  0  0  0  0  0
    6.9071    0.4783    0.0000 H   0  0  0  0  0  0  0  0  0  0  0  0
    7.6754    0.3928    0.0000 H   0  0  0  0  0  0  0  0  0  0  0  0
    6.6296   -2.6105    0.0000 H   0  0  0  0  0  0  0  0  0  0  0  0
    5.9743   -2.2005    0.0000 H   0  0  0  0  0  0  0  0  0  0  0  0
    7.9968   -2.4249    0.0000 H   0  0  0  0  0  0  0  0  0  0  0  0
    7.2675   -2.6813    0.0000 H   0  0  0  0  0  0  0  0  0  0  0  0
    4.7054   -2.5023    0.0000 H   0  0  0  0  0  0  0  0  0  0  0  0
    2.9064   -1.2441    0.0000 H   0  0  0  0  0  0  0  0  0  0  0  0
    2.8807   -0.5350    0.0000 H   0  0  0  0  0  0  0  0  0  0  0  0
    2.3833    0.1871    0.0000 H   0  0  0  0  0  0  0  0  0  0  0  0
    3.1054    0.6845    0.0000 H   0  0  0  0  0  0  0  0  0  0  0  0
    3.1780   -2.1468    0.0000 H   0  0  0  0  0  0  0  0  0  0  0  0
    9.1802   -2.3836    0.0000 H   0  0  0  0  0  0  0  0  0  0  0  0
    8.7484    0.6779    0.0000 H   0  0  0  0  0  0  0  0  0  0  0  0
    9.3875   -0.1851    0.0000 H   0  0  0  0  0  0  0  0  0  0  0  0
    1.9331   -1.0147    0.0000 H   0  0  0  0  0  0  0  0  0  0  0  0
    6.3274    2.3836    0.0000 H   0  0  0  0  0  0  0  0  0  0  0  0
 10  1  1  1  0  0  0
  1 21  1  0  0  0  0
 14  2  1  1  0  0  0
  2 43  1  0  0  0  0
 20  3  1  6  0  0  0
  3 46  1  0  0  0  0
  4 21  2  0  0  0  0
  5 22  1  0  0  0  0
  5 47  1  0  0  0  0
  6 22  2  0  0  0  0
  7  8  1  0  0  0  0
  7 11  1  0  0  0  0
  7 12  1  1  0  0  0
  7 15  1  0  0  0  0
  8 10  1  0  0  0  0
  8 16  1  0  0  0  0
  8 26  1  6  0  0  0
  9 10  1  0  0  0  0
  9 11  1  0  0  0  0
  9 13  1  0  0  0  0
  9 27  1  6  0  0  0
 10 19  1  0  0  0  0
 11 22  1  6  0  0  0
 11 28  1  0  0  0  0
 12 14  1  0  0  0  0
 12 29  1  0  0  0  0
 12 30  1  0  0  0  0
 13 20  1  0  0  0  0
 13 21  1  0  0  0  0
 13 23  1  6  0  0  0
 14 17  1  0  0  0  0
 14 18  1  0  0  0  0
 15 18  1  0  0  0  0
 15 31  1  0  0  0  0
 15 32  1  0  0  0  0
 16 17  1  0  0  0  0
 16 33  1  0  0  0  0
 16 34  1  0  0  0  0
 17 35  1  0  0  0  0
 17 36  1  0  0  0  0
 18 25  2  0  0  0  0
 19 24  2  0  0  0  0
 19 37  1  0  0  0  0
 20 24  1  0  0  0  0
 20 38  1  0  0  0  0
 23 39  1  0  0  0  0
 23 40  1  0  0  0  0
 23 41  1  0  0  0  0
 24 42  1  0  0  0  0
 25 44  1  0  0  0  0
 25 45  1  0  0  0  0
M  END
> <PUBCHEM_COMPOUND_CID>
6466

> <PUBCHEM_COMPOUND_CANONICALIZED>
1

> <PUBCHEM_CACTVS_COMPLEXITY>
772

> <PUBCHEM_CACTVS_HBOND_ACCEPTOR>
6

> <PUBCHEM_CACTVS_HBOND_DONOR>
3

> <PUBCHEM_CACTVS_ROTATABLE_BOND>
1

> <PUBCHEM_CACTVS_SUBSKEYS>
AAADceB4OAAAAAAAAAAAAAAAAAAAAaMEAAAwQAAABggSAGDAAAAAGgAACAAAD1SggAICCAAABgCIAiDSCAAAAAAgAAAICAEAAAgAFBYAIQACUAAFoAAIMAPK7vzPgAAAAAAAAADAAAYAACAAAYAADAAAAA==

> <PUBCHEM_IUPAC_OPENEYE_NAME>
(1R,2R,5S,8S,9S,10R,11S,12S)-5,12-dihydroxy-11-methyl-6-methylene-16-oxo-15-oxapentacyclo[9.3.2.15,8.01,10.02,8]heptadec-13-ene-9-carboxylic acid

> <PUBCHEM_IUPAC_CAS_NAME>
(1R,2R,5S,8S,9S,10R,11S,12S)-5,12-dihydroxy-11-methyl-6-methylene-16-oxo-15-oxapentacyclo[9.3.2.15,8.01,10.02,8]heptadec-13-ene-9-carboxylic acid

> <PUBCHEM_IUPAC_NAME_MARKUP>
(1<I>R</I>,2<I>R</I>,5<I>S</I>,8<I>S</I>,9<I>S</I>,10<I>R</I>,11<I>S</I>,12<I>S</I>)-5,12-dihydroxy-11-methyl-6-methylidene-16-oxo-15-oxapentacyclo[9.3.2.1<SUP>5,8</SUP>.0<SUP>1,10</SUP>.0<SUP>2,8</SUP>]heptadec-13-ene-9-carboxylic acid

> <PUBCHEM_IUPAC_NAME>
(1R,2R,5S,8S,9S,10R,11S,12S)-5,12-dihydroxy-11-methyl-6-methylidene-16-oxo-15-oxapentacyclo[9.3.2.15,8.01,10.02,8]heptadec-13-ene-9-carboxylic acid

> <PUBCHEM_IUPAC_SYSTEMATIC_NAME>
(1R,2R,5S,8S,9S,10R,11S,12S)-11-methyl-6-methylidene-5,12-bis(oxidanyl)-16-oxidanylidene-15-oxapentacyclo[9.3.2.15,8.01,10.02,8]heptadec-13-ene-9-carboxylic acid

> <PUBCHEM_IUPAC_TRADITIONAL_NAME>
(1R,2R,5S,8S,9S,10R,11S,12S)-5,12-dihydroxy-16-keto-11-methyl-6-methylene-15-oxapentacyclo[9.3.2.15,8.01,10.02,8]heptadec-13-ene-9-carboxylic acid

> <PUBCHEM_IUPAC_INCHI>
InChI=1S/C19H22O6/c1-9-7-17-8-18(9,24)5-3-10(17)19-6-4-11(20)16(2,15(23)25-19)13(19)12(17)14(21)22/h4,6,10-13,20,24H,1,3,5,7-8H2,2H3,(H,21,22)/t10-,11+,12-,13-,16-,17+,18+,19-/m1/s1

> <PUBCHEM_IUPAC_INCHIKEY>
IXORZMNAPKEEDV-OBDJNFEBSA-N

> <PUBCHEM_XLOGP3>
0.2

> <PUBCHEM_EXACT_MASS>
346.141638

> <PUBCHEM_MOLECULAR_FORMULA>
C19H22O6

> <PUBCHEM_MOLECULAR_WEIGHT>
346.4

> <PUBCHEM_OPENEYE_CAN_SMILES>
CC12C(C=CC3(C1C(C45C3CCC(C4)(C(=C)C5)O)C(=O)O)OC2=O)O

> <PUBCHEM_OPENEYE_ISO_SMILES>
C[C@@]12[C@H](C=C[C@@]3([C@@H]1[C@@H]([C@]45[C@H]3CC[C@](C4)(C(=C)C5)O)C(=O)O)OC2=O)O

> <PUBCHEM_CACTVS_TPSA>
104

> <PUBCHEM_MONOISOTOPIC_WEIGHT>
346.141638

> <PUBCHEM_TOTAL_CHARGE>
0

> <PUBCHEM_HEAVY_ATOM_COUNT>
25

> <PUBCHEM_ATOM_DEF_STEREO_COUNT>
8

> <PUBCHEM_ATOM_UDEF_STEREO_COUNT>
0

> <PUBCHEM_BOND_DEF_STEREO_COUNT>
0

> <PUBCHEM_BOND_UDEF_STEREO_COUNT>
0

> <PUBCHEM_ISOTOPIC_ATOM_COUNT>
0

> <PUBCHEM_COMPONENT_COUNT>
1

> <PUBCHEM_CACTVS_TAUTO_COUNT>
-1

> <PUBCHEM_COORDINATE_TYPE>
1
5
255

> <PUBCHEM_BONDANNOTATIONS>
10  1  5
11  22  6
13  23  6
14  2  5
20  3  6
7  12  5
8  26  6
9  27  6

$$$$
6323
  -OEChem-04052116402D

  5  4  0     0  0  0  0  0  0999 V2000
    2.0000    0.0000    0.0000 Br  0  0  0  0  0  0  0  0  0  0  0  0
    3.0000    0.0000    0.0000 C   0  0  0  0  0  0  0  0  0  0  0  0
    3.0000   -0.6200    0.0000 H   0  0  0  0  0  0  0  0  0  0  0  0
    3.6200   -0.0000    0.0000 H   0  0  0  0  0  0  0  0  0  0  0  0
    3.0000    0.6200    0.0000 H   0  0  0  0  0  0  0  0  0  0  0  0
  1  2  1  0  0  0  0
  2  3  1  0  0  0  0
  2  4  1  0  0  0  0
  2  5  1  0  0  0  0
M  END
> <PUBCHEM_COMPOUND_CID>
6323

> <PUBCHEM_COMPOUND_CANONICALIZED>
1

> <PUBCHEM_CACTVS_COMPLEXITY>
2

> <PUBCHEM_CACTVS_HBOND_ACCEPTOR>
0

> <PUBCHEM_CACTVS_HBOND_DONOR>
0

> <PUBCHEM_CACTVS_ROTATABLE_BOND>
0

> <PUBCHEM_CACTVS_SUBSKEYS>
AAADcQAAAAAAEAAAAAAAAAAAAAAAAAAAAAAAAAAAAAAAAAAAAAAAEABAAAAAQAAAAAACAAAAAAAAAAAAAAAAAAAAAAAAAAAAAAAAAAAAAAAAAAAAAAAAAAAAAAAAAAAAAAAAAAAAAAAAAAAAAAAAAAAAAA==

> <PUBCHEM_IUPAC_OPENEYE_NAME>
bromomethane

> <PUBCHEM_IUPAC_CAS_NAME>
bromomethane

> <PUBCHEM_IUPAC_NAME_MARKUP>
bromomethane

> <PUBCHEM_IUPAC_NAME>
bromomethane

> <PUBCHEM_IUPAC_SYSTEMATIC_NAME>
bromanylmethane

> <PUBCHEM_IUPAC_TRADITIONAL_NAME>
bromomethane

> <PUBCHEM_IUPAC_INCHI>
InChI=1S/CH3Br/c1-2/h1H3

> <PUBCHEM_IUPAC_INCHIKEY>
GZUXJHMPEANEGY-UHFFFAOYSA-N

> <PUBCHEM_XLOGP3_AA>
1

> <PUBCHEM_EXACT_MASS>
93.94181

> <PUBCHEM_MOLECULAR_FORMULA>
CH3Br

> <PUBCHEM_MOLECULAR_WEIGHT>
94.94

> <PUBCHEM_OPENEYE_CAN_SMILES>
CBr

> <PUBCHEM_OPENEYE_ISO_SMILES>
CBr

> <PUBCHEM_CACTVS_TPSA>
0

> <PUBCHEM_MONOISOTOPIC_WEIGHT>
93.94181

> <PUBCHEM_TOTAL_CHARGE>
0

> <PUBCHEM_HEAVY_ATOM_COUNT>
2

> <PUBCHEM_ATOM_DEF_STEREO_COUNT>
0

> <PUBCHEM_ATOM_UDEF_STEREO_COUNT>
0

> <PUBCHEM_BOND_DEF_STEREO_COUNT>
0

> <PUBCHEM_BOND_UDEF_STEREO_COUNT>
0

> <PUBCHEM_ISOTOPIC_ATOM_COUNT>
0

> <PUBCHEM_COMPONENT_COUNT>
1

> <PUBCHEM_CACTVS_TAUTO_COUNT>
-1

> <PUBCHEM_COORDINATE_TYPE>
1
5
255

$$$$
6251
  -OEChem-04052116402D

 26 25  0     1  0  0  0  0  0999 V2000
    5.1350   -1.2500    0.0000 O   0  0  0  0  0  0  0  0  0  0  0  0
    6.0010    1.2500    0.0000 O   0  0  0  0  0  0  0  0  0  0  0  0
    4.2690    1.2500    0.0000 O   0  0  0  0  0  0  0  0  0  0  0  0
    6.8671   -1.2500    0.0000 O   0  0  0  0  0  0  0  0  0  0  0  0
    2.5369    0.2500    0.0000 O   0  0  0  0  0  0  0  0  0  0  0  0
    8.5991   -0.2500    0.0000 O   0  0  0  0  0  0  0  0  0  0  0  0
    5.1350   -0.2500    0.0000 C   0  0  1  0  0  0  0  0  0  0  0  0
    6.0010    0.2500    0.0000 C   0  0  1  0  0  0  0  0  0  0  0  0
    4.2690    0.2500    0.0000 C   0  0  1  0  0  0  0  0  0  0  0  0
    6.8671   -0.2500    0.0000 C   0  0  1  0  0  0  0  0  0  0  0  0
    3.4030   -0.2500    0.0000 C   0  0  0  0  0  0  0  0  0  0  0  0
    7.7331    0.2500    0.0000 C   0  0  0  0  0  0  0  0  0  0  0  0
    5.6720   -0.5600    0.0000 H   0  0  0  0  0  0  0  0  0  0  0  0
    6.5380    0.5600    0.0000 H   0  0  0  0  0  0  0  0  0  0  0  0
    4.8059    0.5600    0.0000 H   0  0  0  0  0  0  0  0  0  0  0  0
    6.3301   -0.5600    0.0000 H   0  0  0  0  0  0  0  0  0  0  0  0
    3.0044   -0.7249    0.0000 H   0  0  0  0  0  0  0  0  0  0  0  0
    3.8015   -0.7249    0.0000 H   0  0  0  0  0  0  0  0  0  0  0  0
    8.1316    0.7249    0.0000 H   0  0  0  0  0  0  0  0  0  0  0  0
    7.3346    0.7249    0.0000 H   0  0  0  0  0  0  0  0  0  0  0  0
    4.5981   -1.5600    0.0000 H   0  0  0  0  0  0  0  0  0  0  0  0
    6.5380    1.5600    0.0000 H   0  0  0  0  0  0  0  0  0  0  0  0
    3.7320    1.5600    0.0000 H   0  0  0  0  0  0  0  0  0  0  0  0
    7.4040   -1.5600    0.0000 H   0  0  0  0  0  0  0  0  0  0  0  0
    2.0000   -0.0600    0.0000 H   0  0  0  0  0  0  0  0  0  0  0  0
    9.1360    0.0600    0.0000 H   0  0  0  0  0  0  0  0  0  0  0  0
  7  1  1  6  0  0  0
  1 21  1  0  0  0  0
  8  2  1  6  0  0  0
  2 22  1  0  0  0  0
  9  3  1  1  0  0  0
  3 23  1  0  0  0  0
 10  4  1  1  0  0  0
  4 24  1  0  0  0  0
  5 11  1  0  0  0  0
  5 25  1  0  0  0  0
  6 12  1  0  0  0  0
  6 26  1  0  0  0  0
  7  8  1  0  0  0  0
  7  9  1  0  0  0  0
  7 13  1  0  0  0  0
  8 10  1  0  0  0  0
  8 14  1  0  0  0  0
  9 11  1  0  0  0  0
  9 15  1  0  0  0  0
 10 12  1  0  0  0  0
 10 16  1  0  0  0  0
 11 17  1  0  0  0  0
 11 18  1  0  0  0  0
 12 19  1  0  0  0  0
 12 20  1  0  0  0  0
M  END
> <PUBCHEM_COMPOUND_CID>
6251

> <PUBCHEM_COMPOUND_CANONICALIZED>
1

> <PUBCHEM_CACTVS_COMPLEXITY>
105

> <PUBCHEM_CACTVS_HBOND_ACCEPTOR>
6

> <PUBCHEM_CACTVS_HBOND_DONOR>
6

> <PUBCHEM_CACTVS_ROTATABLE_BOND>
5

> <PUBCHEM_CACTVS_SUBSKEYS>
AAADccBgOAAAAAAAAAAAAAAAAAAAAAAAAAAAAAAAAAAAAAAAAAAAGgAACAAACBSggAIAAAAAAgAAAAAAAAAAAAAAAAAAAAAAAAABEAIAAAAAQAAFAAABAAHAYAQAAAAAAAAAAAAAAAAAAAAAAAAAAAAAAA==

> <PUBCHEM_IUPAC_OPENEYE_NAME>
(2R,3R,4R,5R)-hexane-1,2,3,4,5,6-hexol

> <PUBCHEM_IUPAC_CAS_NAME>
(2R,3R,4R,5R)-hexane-1,2,3,4,5,6-hexol

> <PUBCHEM_IUPAC_NAME_MARKUP>
(2<I>R</I>,3<I>R</I>,4<I>R</I>,5<I>R</I>)-hexane-1,2,3,4,5,6-hexol

> <PUBCHEM_IUPAC_NAME>
(2R,3R,4R,5R)-hexane-1,2,3,4,5,6-hexol

> <PUBCHEM_IUPAC_SYSTEMATIC_NAME>
(2R,3R,4R,5R)-hexane-1,2,3,4,5,6-hexol

> <PUBCHEM_IUPAC_TRADITIONAL_NAME>
(2R,3R,4R,5R)-hexane-1,2,3,4,5,6-hexol

> <PUBCHEM_IUPAC_INCHI>
InChI=1S/C6H14O6/c7-1-3(9)5(11)6(12)4(10)2-8/h3-12H,1-2H2/t3-,4-,5-,6-/m1/s1

> <PUBCHEM_IUPAC_INCHIKEY>
FBPFZTCFMRRESA-KVTDHHQDSA-N

> <PUBCHEM_XLOGP3>
-3.1

> <PUBCHEM_EXACT_MASS>
182.079038

> <PUBCHEM_MOLECULAR_FORMULA>
C6H14O6

> <PUBCHEM_MOLECULAR_WEIGHT>
182.17

> <PUBCHEM_OPENEYE_CAN_SMILES>
C(C(C(C(C(CO)O)O)O)O)O

> <PUBCHEM_OPENEYE_ISO_SMILES>
C([C@H]([C@H]([C@@H]([C@@H](CO)O)O)O)O)O

> <PUBCHEM_CACTVS_TPSA>
121

> <PUBCHEM_MONOISOTOPIC_WEIGHT>
182.079038

> <PUBCHEM_TOTAL_CHARGE>
0

> <PUBCHEM_HEAVY_ATOM_COUNT>
12

> <PUBCHEM_ATOM_DEF_STEREO_COUNT>
4

> <PUBCHEM_ATOM_UDEF_STEREO_COUNT>
0

> <PUBCHEM_BOND_DEF_STEREO_COUNT>
0

> <PUBCHEM_BOND_UDEF_STEREO_COUNT>
0

> <PUBCHEM_ISOTOPIC_ATOM_COUNT>
0

> <PUBCHEM_COMPONENT_COUNT>
1

> <PUBCHEM_CACTVS_TAUTO_COUNT>
-1

> <PUBCHEM_COORDINATE_TYPE>
1
5
255

> <PUBCHEM_BONDANNOTATIONS>
7  1  6
8  2  6
9  3  5
10  4  5

$$$$
6202
  -OEChem-04052116402D

 38 37  0     0  0  0  0  0  0999 V2000
    7.3997    2.6284    0.0000 Cl  0  0  0  0  0  0  0  0  0  0  0  0
    7.6497    5.1284    0.0000 Cl  0  5  0  0  0  0  0  0  0  0  0  0
    0.8987    5.1588    0.0000 S   0  0  0  0  0  0  0  0  0  0  0  0
    2.6675    7.6904    0.0000 O   0  0  0  0  0  0  0  0  0  0  0  0
    1.3987    3.6200    0.0000 N   0  3  0  0  0  0  0  0  0  0  0  0
    3.1307    0.6200    0.0000 N   0  0  0  0  0  0  0  0  0  0  0  0
    3.9968    2.1200    0.0000 N   0  0  0  0  0  0  0  0  0  0  0  0
    1.3987    0.6200    0.0000 N   0  0  0  0  0  0  0  0  0  0  0  0
    2.2077    4.2078    0.0000 C   0  0  0  0  0  0  0  0  0  0  0  0
    1.3987    2.6200    0.0000 C   0  0  0  0  0  0  0  0  0  0  0  0
    1.8987    5.1588    0.0000 C   0  0  0  0  0  0  0  0  0  0  0  0
    2.4865    5.9679    0.0000 C   0  0  0  0  0  0  0  0  0  0  0  0
    0.5897    4.2078    0.0000 C   0  0  0  0  0  0  0  0  0  0  0  0
    2.2647    2.1200    0.0000 C   0  0  0  0  0  0  0  0  0  0  0  0
    3.1588    3.8988    0.0000 C   0  0  0  0  0  0  0  0  0  0  0  0
    2.0797    6.8814    0.0000 C   0  0  0  0  0  0  0  0  0  0  0  0
    2.2647    1.1200    0.0000 C   0  0  0  0  0  0  0  0  0  0  0  0
    3.1307    2.6200    0.0000 C   0  0  0  0  0  0  0  0  0  0  0  0
    3.9968    1.1200    0.0000 C   0  0  0  0  0  0  0  0  0  0  0  0
    4.8628    0.6200    0.0000 C   0  0  0  0  0  0  0  0  0  0  0  0
    0.7881    2.7277    0.0000 H   0  0  0  0  0  0  0  0  0  0  0  0
    1.1866    2.0374    0.0000 H   0  0  0  0  0  0  0  0  0  0  0  0
    2.9171    5.5219    0.0000 H   0  0  0  0  0  0  0  0  0  0  0  0
    3.0005    6.3146    0.0000 H   0  0  0  0  0  0  0  0  0  0  0  0
    0.0000    4.0162    0.0000 H   0  0  0  0  0  0  0  0  0  0  0  0
    2.9672    3.3091    0.0000 H   0  0  0  0  0  0  0  0  0  0  0  0
    3.7484    3.7072    0.0000 H   0  0  0  0  0  0  0  0  0  0  0  0
    3.3503    4.4884    0.0000 H   0  0  0  0  0  0  0  0  0  0  0  0
    1.6490    7.3274    0.0000 H   0  0  0  0  0  0  0  0  0  0  0  0
    1.5657    6.5347    0.0000 H   0  0  0  0  0  0  0  0  0  0  0  0
    3.1307    3.2400    0.0000 H   0  0  0  0  0  0  0  0  0  0  0  0
    1.3987    0.0000    0.0000 H   0  0  0  0  0  0  0  0  0  0  0  0
    0.8617    0.9300    0.0000 H   0  0  0  0  0  0  0  0  0  0  0  0
    2.4153    8.2568    0.0000 H   0  0  0  0  0  0  0  0  0  0  0  0
    4.5528    0.0831    0.0000 H   0  0  0  0  0  0  0  0  0  0  0  0
    5.3997    0.3100    0.0000 H   0  0  0  0  0  0  0  0  0  0  0  0
    5.1728    1.1569    0.0000 H   0  0  0  0  0  0  0  0  0  0  0  0
    8.3997    2.6284    0.0000 H   0  0  0  0  0  0  0  0  0  0  0  0
  1 38  1  0  0  0  0
  3 11  1  0  0  0  0
  3 13  1  0  0  0  0
  4 16  1  0  0  0  0
  4 34  1  0  0  0  0
  5  9  1  0  0  0  0
  5 10  1  0  0  0  0
  5 13  2  0  0  0  0
  6 17  2  0  0  0  0
  6 19  1  0  0  0  0
  7 18  1  0  0  0  0
  7 19  2  0  0  0  0
  8 17  1  0  0  0  0
  8 32  1  0  0  0  0
  8 33  1  0  0  0  0
  9 11  2  0  0  0  0
  9 15  1  0  0  0  0
 10 14  1  0  0  0  0
 10 21  1  0  0  0  0
 10 22  1  0  0  0  0
 11 12  1  0  0  0  0
 12 16  1  0  0  0  0
 12 23  1  0  0  0  0
 12 24  1  0  0  0  0
 13 25  1  0  0  0  0
 14 17  1  0  0  0  0
 14 18  2  0  0  0  0
 15 26  1  0  0  0  0
 15 27  1  0  0  0  0
 15 28  1  0  0  0  0
 16 29  1  0  0  0  0
 16 30  1  0  0  0  0
 18 31  1  0  0  0  0
 19 20  1  0  0  0  0
 20 35  1  0  0  0  0
 20 36  1  0  0  0  0
 20 37  1  0  0  0  0
M  CHG  2   2  -1   5   1
M  END
> <PUBCHEM_COMPOUND_CID>
6202

> <PUBCHEM_COMPOUND_CANONICALIZED>
1

> <PUBCHEM_CACTVS_COMPLEXITY>
269

> <PUBCHEM_CACTVS_HBOND_ACCEPTOR>
6

> <PUBCHEM_CACTVS_HBOND_DONOR>
3

> <PUBCHEM_CACTVS_ROTATABLE_BOND>
4

> <PUBCHEM_CACTVS_SUBSKEYS>
AAADceBzoABGAAAAAAAAAAAAAAAAAWAAAAAsAAAAAAAAAAAB4AAAHgQQCAAADAjh3wavsZdMEgikAxZnZACA8KlxCLgBWDQ4RBiAOIJgyUAERAgsQAPISCKgAAAAAAAAAAAAAAAAAAAAAAAAAAAAAAAAAA==

> <PUBCHEM_IUPAC_OPENEYE_NAME>
2-[3-[(4-amino-2-methyl-pyrimidin-5-yl)methyl]-4-methyl-thiazol-3-ium-5-yl]ethanol;chloride;hydrochloride

> <PUBCHEM_IUPAC_CAS_NAME>
2-[3-[(4-amino-2-methyl-5-pyrimidinyl)methyl]-4-methyl-5-thiazol-3-iumyl]ethanol;chloride;hydrochloride

> <PUBCHEM_IUPAC_NAME_MARKUP>
2-[3-[(4-amino-2-methylpyrimidin-5-yl)methyl]-4-methyl-1,3-thiazol-3-ium-5-yl]ethanol;chloride;hydrochloride

> <PUBCHEM_IUPAC_NAME>
2-[3-[(4-amino-2-methylpyrimidin-5-yl)methyl]-4-methyl-1,3-thiazol-3-ium-5-yl]ethanol;chloride;hydrochloride

> <PUBCHEM_IUPAC_SYSTEMATIC_NAME>
2-[3-[(4-azanyl-2-methyl-pyrimidin-5-yl)methyl]-4-methyl-1,3-thiazol-3-ium-5-yl]ethanol;chloride;hydrochloride

> <PUBCHEM_IUPAC_TRADITIONAL_NAME>
thiamin;chloride;hydrochloride

> <PUBCHEM_IUPAC_INCHI>
InChI=1S/C12H17N4OS.2ClH/c1-8-11(3-4-17)18-7-16(8)6-10-5-14-9(2)15-12(10)13;;/h5,7,17H,3-4,6H2,1-2H3,(H2,13,14,15);2*1H/q+1;;/p-1

> <PUBCHEM_IUPAC_INCHIKEY>
DPJRMOMPQZCRJU-UHFFFAOYSA-M

> <PUBCHEM_EXACT_MASS>
336.057838

> <PUBCHEM_MOLECULAR_FORMULA>
C12H18Cl2N4OS

> <PUBCHEM_MOLECULAR_WEIGHT>
337.3

> <PUBCHEM_OPENEYE_CAN_SMILES>
CC1=C(SC=[N+]1CC2=CN=C(N=C2N)C)CCO.Cl.[Cl-]

> <PUBCHEM_OPENEYE_ISO_SMILES>
CC1=C(SC=[N+]1CC2=CN=C(N=C2N)C)CCO.Cl.[Cl-]

> <PUBCHEM_CACTVS_TPSA>
104

> <PUBCHEM_MONOISOTOPIC_WEIGHT>
336.057838

> <PUBCHEM_TOTAL_CHARGE>
0

> <PUBCHEM_HEAVY_ATOM_COUNT>
20

> <PUBCHEM_ATOM_DEF_STEREO_COUNT>
0

> <PUBCHEM_ATOM_UDEF_STEREO_COUNT>
0

> <PUBCHEM_BOND_DEF_STEREO_COUNT>
0

> <PUBCHEM_BOND_UDEF_STEREO_COUNT>
0

> <PUBCHEM_ISOTOPIC_ATOM_COUNT>
0

> <PUBCHEM_COMPONENT_COUNT>
3

> <PUBCHEM_CACTVS_TAUTO_COUNT>
-1

> <PUBCHEM_COORDINATE_TYPE>
1
5
255

> <PUBCHEM_BONDANNOTATIONS>
14  17  8
14  18  8
3  11  8
3  13  8
5  13  8
5  9  8
6  17  8
6  19  8
7  18  8
7  19  8
9  11  8

$$$$
6167
  -OEChem-04052116402D

 54 56  0     1  0  0  0  0  0999 V2000
    5.3788   -2.2731    0.0000 O   0  0  0  0  0  0  0  0  0  0  0  0
    7.0622   -3.4400    0.0000 O   0  0  0  0  0  0  0  0  0  0  0  0
    8.9077   -2.5513    0.0000 O   0  0  0  0  0  0  0  0  0  0  0  0
    2.2948   -0.5920    0.0000 O   0  0  0  0  0  0  0  0  0  0  0  0
    2.7031    1.2084    0.0000 O   0  0  0  0  0  0  0  0  0  0  0  0
    7.0052    3.0308    0.0000 O   0  0  0  0  0  0  0  0  0  0  0  0
    5.4447    2.2793    0.0000 N   0  0  0  0  0  0  0  0  0  0  0  0
    5.8786    1.3783    0.0000 C   0  0  1  0  0  0  0  0  0  0  0  0
    6.8786    1.3783    0.0000 C   0  0  0  0  0  0  0  0  0  0  0  0
    7.5021    0.5965    0.0000 C   0  0  0  0  0  0  0  0  0  0  0  0
    5.2551    0.5965    0.0000 C   0  0  0  0  0  0  0  0  0  0  0  0
    7.2796   -0.3784    0.0000 C   0  0  0  0  0  0  0  0  0  0  0  0
    6.3786   -0.8123    0.0000 C   0  0  0  0  0  0  0  0  0  0  0  0
    5.4776   -0.3784    0.0000 C   0  0  0  0  0  0  0  0  0  0  0  0
    6.2847   -1.8497    0.0000 C   0  0  0  0  0  0  0  0  0  0  0  0
    8.1491   -0.9519    0.0000 C   0  0  0  0  0  0  0  0  0  0  0  0
    4.3686    1.0161    0.0000 C   0  0  0  0  0  0  0  0  0  0  0  0
    4.8610   -1.1411    0.0000 C   0  0  0  0  0  0  0  0  0  0  0  0
    7.1408   -2.4431    0.0000 C   0  0  0  0  0  0  0  0  0  0  0  0
    8.0793   -1.9912    0.0000 C   0  0  0  0  0  0  0  0  0  0  0  0
    3.4866    0.5870    0.0000 C   0  0  0  0  0  0  0  0  0  0  0  0
    6.0080    3.1055    0.0000 C   0  0  0  0  0  0  0  0  0  0  0  0
    3.8802   -1.1372    0.0000 C   0  0  0  0  0  0  0  0  0  0  0  0
    3.2697   -0.3695    0.0000 C   0  0  0  0  0  0  0  0  0  0  0  0
    5.5741    4.0065    0.0000 C   0  0  0  0  0  0  0  0  0  0  0  0
    5.2926   -3.2694    0.0000 C   0  0  0  0  0  0  0  0  0  0  0  0
    7.8863   -4.0065    0.0000 C   0  0  0  0  0  0  0  0  0  0  0  0
    9.8070   -2.1139    0.0000 C   0  0  0  0  0  0  0  0  0  0  0  0
    2.0000   -1.5476    0.0000 C   0  0  0  0  0  0  0  0  0  0  0  0
    6.2084    1.9033    0.0000 H   0  0  0  0  0  0  0  0  0  0  0  0
    7.4372    1.6473    0.0000 H   0  0  0  0  0  0  0  0  0  0  0  0
    6.7406    1.9828    0.0000 H   0  0  0  0  0  0  0  0  0  0  0  0
    8.0607    0.3275    0.0000 H   0  0  0  0  0  0  0  0  0  0  0  0
    7.8886    1.0812    0.0000 H   0  0  0  0  0  0  0  0  0  0  0  0
    4.8264    2.3256    0.0000 H   0  0  0  0  0  0  0  0  0  0  0  0
    8.7046   -0.6764    0.0000 H   0  0  0  0  0  0  0  0  0  0  0  0
    4.3652    1.6361    0.0000 H   0  0  0  0  0  0  0  0  0  0  0  0
    5.1270   -1.7012    0.0000 H   0  0  0  0  0  0  0  0  0  0  0  0
    3.6097   -1.6950    0.0000 H   0  0  0  0  0  0  0  0  0  0  0  0
    6.1327    4.2755    0.0000 H   0  0  0  0  0  0  0  0  0  0  0  0
    5.3051    4.5651    0.0000 H   0  0  0  0  0  0  0  0  0  0  0  0
    5.0155    3.7375    0.0000 H   0  0  0  0  0  0  0  0  0  0  0  0
    4.6749   -3.2159    0.0000 H   0  0  0  0  0  0  0  0  0  0  0  0
    5.2391   -3.8871    0.0000 H   0  0  0  0  0  0  0  0  0  0  0  0
    5.9102   -3.3229    0.0000 H   0  0  0  0  0  0  0  0  0  0  0  0
    7.5351   -4.5174    0.0000 H   0  0  0  0  0  0  0  0  0  0  0  0
    8.3972   -4.3577    0.0000 H   0  0  0  0  0  0  0  0  0  0  0  0
    8.2375   -3.4956    0.0000 H   0  0  0  0  0  0  0  0  0  0  0  0
   10.0781   -2.6715    0.0000 H   0  0  0  0  0  0  0  0  0  0  0  0
   10.3646   -1.8428    0.0000 H   0  0  0  0  0  0  0  0  0  0  0  0
    9.5358   -1.5564    0.0000 H   0  0  0  0  0  0  0  0  0  0  0  0
    1.4075   -1.3649    0.0000 H   0  0  0  0  0  0  0  0  0  0  0  0
    1.8172   -2.1401    0.0000 H   0  0  0  0  0  0  0  0  0  0  0  0
    2.5925   -1.7304    0.0000 H   0  0  0  0  0  0  0  0  0  0  0  0
  1 15  1  0  0  0  0
  1 26  1  0  0  0  0
  2 19  1  0  0  0  0
  2 27  1  0  0  0  0
  3 20  1  0  0  0  0
  3 28  1  0  0  0  0
  4 24  1  0  0  0  0
  4 29  1  0  0  0  0
  5 21  2  0  0  0  0
  6 22  2  0  0  0  0
  8  7  1  1  0  0  0
  7 22  1  0  0  0  0
  7 35  1  0  0  0  0
  8  9  1  0  0  0  0
  8 11  1  0  0  0  0
  8 30  1  0  0  0  0
  9 10  1  0  0  0  0
  9 31  1  0  0  0  0
  9 32  1  0  0  0  0
 10 12  1  0  0  0  0
 10 33  1  0  0  0  0
 10 34  1  0  0  0  0
 11 14  1  0  0  0  0
 11 17  2  0  0  0  0
 12 13  1  0  0  0  0
 12 16  2  0  0  0  0
 13 14  1  0  0  0  0
 13 15  2  0  0  0  0
 14 18  2  0  0  0  0
 15 19  1  0  0  0  0
 16 20  1  0  0  0  0
 16 36  1  0  0  0  0
 17 21  1  0  0  0  0
 17 37  1  0  0  0  0
 18 23  1  0  0  0  0
 18 38  1  0  0  0  0
 19 20  2  0  0  0  0
 21 24  1  0  0  0  0
 22 25  1  0  0  0  0
 23 24  2  0  0  0  0
 23 39  1  0  0  0  0
 25 40  1  0  0  0  0
 25 41  1  0  0  0  0
 25 42  1  0  0  0  0
 26 43  1  0  0  0  0
 26 44  1  0  0  0  0
 26 45  1  0  0  0  0
 27 46  1  0  0  0  0
 27 47  1  0  0  0  0
 27 48  1  0  0  0  0
 28 49  1  0  0  0  0
 28 50  1  0  0  0  0
 28 51  1  0  0  0  0
 29 52  1  0  0  0  0
 29 53  1  0  0  0  0
 29 54  1  0  0  0  0
M  END
> <PUBCHEM_COMPOUND_CID>
6167

> <PUBCHEM_COMPOUND_CANONICALIZED>
1

> <PUBCHEM_CACTVS_COMPLEXITY>
740

> <PUBCHEM_CACTVS_HBOND_ACCEPTOR>
6

> <PUBCHEM_CACTVS_HBOND_DONOR>
1

> <PUBCHEM_CACTVS_ROTATABLE_BOND>
5

> <PUBCHEM_CACTVS_SUBSKEYS>
AAADceB6OAAAAAAAAAAAAAAAAAAAAAAAAAAwAAAABggAAAABAAAAHgAQAAAADCzBmAYyBoLABACIAqFSEAKCCAAgIAAAiIBOiMgNJyKEsR6EMCIl1hWKqYeQ8P8OoAABCAAYQABAAAIQADCAAAAAAAAAAA==

> <PUBCHEM_IUPAC_OPENEYE_NAME>
N-[(7S)-1,2,3,10-tetramethoxy-9-oxo-6,7-dihydro-5H-benzo[a]heptalen-7-yl]acetamide

> <PUBCHEM_IUPAC_CAS_NAME>
N-[(7S)-1,2,3,10-tetramethoxy-9-oxo-6,7-dihydro-5H-benzo[a]heptalen-7-yl]acetamide

> <PUBCHEM_IUPAC_NAME_MARKUP>
<I>N</I>-[(7<I>S</I>)-1,2,3,10-tetramethoxy-9-oxo-6,7-dihydro-5<I>H</I>-benzo[a]heptalen-7-yl]acetamide

> <PUBCHEM_IUPAC_NAME>
N-[(7S)-1,2,3,10-tetramethoxy-9-oxo-6,7-dihydro-5H-benzo[a]heptalen-7-yl]acetamide

> <PUBCHEM_IUPAC_SYSTEMATIC_NAME>
N-[(7S)-1,2,3,10-tetramethoxy-9-oxidanylidene-6,7-dihydro-5H-benzo[a]heptalen-7-yl]ethanamide

> <PUBCHEM_IUPAC_TRADITIONAL_NAME>
N-[(7S)-9-keto-1,2,3,10-tetramethoxy-6,7-dihydro-5H-benzo[a]heptalen-7-yl]acetamide

> <PUBCHEM_IUPAC_INCHI>
InChI=1S/C22H25NO6/c1-12(24)23-16-8-6-13-10-19(27-3)21(28-4)22(29-5)20(13)14-7-9-18(26-2)17(25)11-15(14)16/h7,9-11,16H,6,8H2,1-5H3,(H,23,24)/t16-/m0/s1

> <PUBCHEM_IUPAC_INCHIKEY>
IAKHMKGGTNLKSZ-INIZCTEOSA-N

> <PUBCHEM_XLOGP3>
1

> <PUBCHEM_EXACT_MASS>
399.168188

> <PUBCHEM_MOLECULAR_FORMULA>
C22H25NO6

> <PUBCHEM_MOLECULAR_WEIGHT>
399.4

> <PUBCHEM_OPENEYE_CAN_SMILES>
CC(=O)NC1CCC2=CC(=C(C(=C2C3=CC=C(C(=O)C=C13)OC)OC)OC)OC

> <PUBCHEM_OPENEYE_ISO_SMILES>
CC(=O)N[C@H]1CCC2=CC(=C(C(=C2C3=CC=C(C(=O)C=C13)OC)OC)OC)OC

> <PUBCHEM_CACTVS_TPSA>
83.1

> <PUBCHEM_MONOISOTOPIC_WEIGHT>
399.168188

> <PUBCHEM_TOTAL_CHARGE>
0

> <PUBCHEM_HEAVY_ATOM_COUNT>
29

> <PUBCHEM_ATOM_DEF_STEREO_COUNT>
1

> <PUBCHEM_ATOM_UDEF_STEREO_COUNT>
0

> <PUBCHEM_BOND_DEF_STEREO_COUNT>
0

> <PUBCHEM_BOND_UDEF_STEREO_COUNT>
0

> <PUBCHEM_ISOTOPIC_ATOM_COUNT>
0

> <PUBCHEM_COMPONENT_COUNT>
1

> <PUBCHEM_CACTVS_TAUTO_COUNT>
-1

> <PUBCHEM_COORDINATE_TYPE>
1
5
255

> <PUBCHEM_BONDANNOTATIONS>
11  14  8
11  17  8
12  13  8
12  16  8
13  15  8
14  18  8
15  19  8
16  20  8
17  21  8
18  23  8
19  20  8
21  24  8
23  24  8
8  7  5

$$$$
6036
  -OEChem-04052116402D

 24 24  0     1  0  0  0  0  0999 V2000
    4.2690    1.0000    0.0000 O   0  0  0  0  0  0  0  0  0  0  0  0
    2.5369   -1.0000    0.0000 O   0  0  0  0  0  0  0  0  0  0  0  0
    4.2690   -2.0000    0.0000 O   0  0  0  0  0  0  0  0  0  0  0  0
    6.0010   -1.0000    0.0000 O   0  0  0  0  0  0  0  0  0  0  0  0
    6.0010    1.0000    0.0000 O   0  0  0  0  0  0  0  0  0  0  0  0
    2.5369    2.0000    0.0000 O   0  0  0  0  0  0  0  0  0  0  0  0
    3.4030   -0.5000    0.0000 C   0  0  2  0  0  0  0  0  0  0  0  0
    4.2690   -1.0000    0.0000 C   0  0  1  0  0  0  0  0  0  0  0  0
    3.4030    0.5000    0.0000 C   0  0  1  0  0  0  0  0  0  0  0  0
    5.1350   -0.5000    0.0000 C   0  0  2  0  0  0  0  0  0  0  0  0
    5.1350    0.5000    0.0000 C   0  0  3  0  0  0  0  0  0  0  0  0
    2.5369    1.0000    0.0000 C   0  0  0  0  0  0  0  0  0  0  0  0
    3.4030   -1.1200    0.0000 H   0  0  0  0  0  0  0  0  0  0  0  0
    3.7320   -1.3100    0.0000 H   0  0  0  0  0  0  0  0  0  0  0  0
    3.4030    1.1200    0.0000 H   0  0  0  0  0  0  0  0  0  0  0  0
    5.1350   -1.1200    0.0000 H   0  0  0  0  0  0  0  0  0  0  0  0
    5.1350    1.1200    0.0000 H   0  0  0  0  0  0  0  0  0  0  0  0
    1.9264    1.1077    0.0000 H   0  0  0  0  0  0  0  0  0  0  0  0
    2.3249    0.4174    0.0000 H   0  0  0  0  0  0  0  0  0  0  0  0
    2.0000   -0.6900    0.0000 H   0  0  0  0  0  0  0  0  0  0  0  0
    4.8059   -2.3100    0.0000 H   0  0  0  0  0  0  0  0  0  0  0  0
    6.5380   -0.6900    0.0000 H   0  0  0  0  0  0  0  0  0  0  0  0
    6.0010    1.6200    0.0000 H   0  0  0  0  0  0  0  0  0  0  0  0
    2.0000    2.3100    0.0000 H   0  0  0  0  0  0  0  0  0  0  0  0
  1  9  1  0  0  0  0
  1 11  1  0  0  0  0
  7  2  1  1  0  0  0
  2 20  1  0  0  0  0
  8  3  1  1  0  0  0
  3 21  1  0  0  0  0
 10  4  1  6  0  0  0
  4 22  1  0  0  0  0
  5 11  1  0  0  0  0
  5 23  1  0  0  0  0
  6 12  1  0  0  0  0
  6 24  1  0  0  0  0
  7  8  1  0  0  0  0
  7  9  1  0  0  0  0
  7 13  1  0  0  0  0
  8 10  1  0  0  0  0
  8 14  1  0  0  0  0
  9 12  1  1  0  0  0
  9 15  1  0  0  0  0
 10 11  1  0  0  0  0
 10 16  1  0  0  0  0
 11 17  1  0  0  0  0
 12 18  1  0  0  0  0
 12 19  1  0  0  0  0
M  END
> <PUBCHEM_COMPOUND_CID>
6036

> <PUBCHEM_COMPOUND_CANONICALIZED>
1

> <PUBCHEM_CACTVS_COMPLEXITY>
151

> <PUBCHEM_CACTVS_HBOND_ACCEPTOR>
6

> <PUBCHEM_CACTVS_HBOND_DONOR>
5

> <PUBCHEM_CACTVS_ROTATABLE_BOND>
1

> <PUBCHEM_CACTVS_SUBSKEYS>
AAADccBgOAAAAAAAAAAAAAAAAAAAAAAAAAAkAAAAAAAAAAAAAAAAGgAACAAACBSwgAMACAAABgAAAAAAAAAAAAAAAAAAAAAAAAAREAIAAAACQAAFAAAHAAHAYAQAAAAAAAAAAAAAAAAAAAAAAAAAAAAAAA==

> <PUBCHEM_IUPAC_OPENEYE_NAME>
(3R,4S,5R,6R)-6-(hydroxymethyl)tetrahydropyran-2,3,4,5-tetrol

> <PUBCHEM_IUPAC_CAS_NAME>
(3R,4S,5R,6R)-6-(hydroxymethyl)oxane-2,3,4,5-tetrol

> <PUBCHEM_IUPAC_NAME_MARKUP>
(3<I>R</I>,4<I>S</I>,5<I>R</I>,6<I>R</I>)-6-(hydroxymethyl)oxane-2,3,4,5-tetrol

> <PUBCHEM_IUPAC_NAME>
(3R,4S,5R,6R)-6-(hydroxymethyl)oxane-2,3,4,5-tetrol

> <PUBCHEM_IUPAC_SYSTEMATIC_NAME>
(3R,4S,5R,6R)-6-(hydroxymethyl)oxane-2,3,4,5-tetrol

> <PUBCHEM_IUPAC_TRADITIONAL_NAME>
(3R,4S,5R,6R)-6-methyloltetrahydropyran-2,3,4,5-tetrol

> <PUBCHEM_IUPAC_INCHI>
InChI=1S/C6H12O6/c7-1-2-3(8)4(9)5(10)6(11)12-2/h2-11H,1H2/t2-,3+,4+,5-,6?/m1/s1

> <PUBCHEM_IUPAC_INCHIKEY>
WQZGKKKJIJFFOK-SVZMEOIVSA-N

> <PUBCHEM_XLOGP3_AA>
-2.6

> <PUBCHEM_EXACT_MASS>
180.063388

> <PUBCHEM_MOLECULAR_FORMULA>
C6H12O6

> <PUBCHEM_MOLECULAR_WEIGHT>
180.16

> <PUBCHEM_OPENEYE_CAN_SMILES>
C(C1C(C(C(C(O1)O)O)O)O)O

> <PUBCHEM_OPENEYE_ISO_SMILES>
C([C@@H]1[C@@H]([C@@H]([C@H](C(O1)O)O)O)O)O

> <PUBCHEM_CACTVS_TPSA>
110

> <PUBCHEM_MONOISOTOPIC_WEIGHT>
180.063388

> <PUBCHEM_TOTAL_CHARGE>
0

> <PUBCHEM_HEAVY_ATOM_COUNT>
12

> <PUBCHEM_ATOM_DEF_STEREO_COUNT>
4

> <PUBCHEM_ATOM_UDEF_STEREO_COUNT>
1

> <PUBCHEM_BOND_DEF_STEREO_COUNT>
0

> <PUBCHEM_BOND_UDEF_STEREO_COUNT>
0

> <PUBCHEM_ISOTOPIC_ATOM_COUNT>
0

> <PUBCHEM_COMPONENT_COUNT>
1

> <PUBCHEM_CACTVS_TAUTO_COUNT>
-1

> <PUBCHEM_COORDINATE_TYPE>
1
5
255

> <PUBCHEM_BONDANNOTATIONS>
7  2  5
8  3  5
10  4  6
11  5  3
9  12  5

$$$$
6019
  -OEChem-04052116402D

 25 24  0     0  0  0  0  0  0999 V2000
    2.2020    0.0000    0.0000 Cl  0  0  0  0  0  0  0  0  0  0  0  0
    0.5369    5.0369    0.0000 O   0  0  0  0  0  0  0  0  0  0  0  0
    3.1350    6.5369    0.0000 O   0  0  0  0  0  0  0  0  0  0  0  0
    4.8671    4.5369    0.0000 O   0  0  0  0  0  0  0  0  0  0  0  0
    2.2690    3.0369    0.0000 N   0  0  0  0  0  0  0  0  0  0  0  0
    2.2690    5.0369    0.0000 C   0  0  0  0  0  0  0  0  0  0  0  0
    3.1350    4.5369    0.0000 C   0  0  0  0  0  0  0  0  0  0  0  0
    1.4030    4.5369    0.0000 C   0  0  0  0  0  0  0  0  0  0  0  0
    1.4030    3.5369    0.0000 C   0  0  0  0  0  0  0  0  0  0  0  0
    2.2690    6.0369    0.0000 C   0  0  0  0  0  0  0  0  0  0  0  0
    4.0010    5.0369    0.0000 C   0  0  0  0  0  0  0  0  0  0  0  0
    3.1350    3.5369    0.0000 C   0  0  0  0  0  0  0  0  0  0  0  0
    0.5369    3.0369    0.0000 C   0  0  0  0  0  0  0  0  0  0  0  0
    2.0569    6.6195    0.0000 H   0  0  0  0  0  0  0  0  0  0  0  0
    1.6584    5.9293    0.0000 H   0  0  0  0  0  0  0  0  0  0  0  0
    4.3996    5.5119    0.0000 H   0  0  0  0  0  0  0  0  0  0  0  0
    3.6025    5.5119    0.0000 H   0  0  0  0  0  0  0  0  0  0  0  0
    3.6720    3.2269    0.0000 H   0  0  0  0  0  0  0  0  0  0  0  0
    0.2269    3.5739    0.0000 H   0  0  0  0  0  0  0  0  0  0  0  0
    0.0000    2.7269    0.0000 H   0  0  0  0  0  0  0  0  0  0  0  0
    0.8469    2.5000    0.0000 H   0  0  0  0  0  0  0  0  0  0  0  0
    0.0000    4.7269    0.0000 H   0  0  0  0  0  0  0  0  0  0  0  0
    3.1350    7.1569    0.0000 H   0  0  0  0  0  0  0  0  0  0  0  0
    5.4040    4.8469    0.0000 H   0  0  0  0  0  0  0  0  0  0  0  0
    3.2020    0.0000    0.0000 H   0  0  0  0  0  0  0  0  0  0  0  0
  1 25  1  0  0  0  0
  2  8  1  0  0  0  0
  2 22  1  0  0  0  0
  3 10  1  0  0  0  0
  3 23  1  0  0  0  0
  4 11  1  0  0  0  0
  4 24  1  0  0  0  0
  5  9  2  0  0  0  0
  5 12  1  0  0  0  0
  6  7  1  0  0  0  0
  6  8  2  0  0  0  0
  6 10  1  0  0  0  0
  7 11  1  0  0  0  0
  7 12  2  0  0  0  0
  8  9  1  0  0  0  0
  9 13  1  0  0  0  0
 10 14  1  0  0  0  0
 10 15  1  0  0  0  0
 11 16  1  0  0  0  0
 11 17  1  0  0  0  0
 12 18  1  0  0  0  0
 13 19  1  0  0  0  0
 13 20  1  0  0  0  0
 13 21  1  0  0  0  0
M  END
> <PUBCHEM_COMPOUND_CID>
6019

> <PUBCHEM_COMPOUND_CANONICALIZED>
1

> <PUBCHEM_CACTVS_COMPLEXITY>
142

> <PUBCHEM_CACTVS_HBOND_ACCEPTOR>
4

> <PUBCHEM_CACTVS_HBOND_DONOR>
4

> <PUBCHEM_CACTVS_ROTATABLE_BOND>
2

> <PUBCHEM_CACTVS_SUBSKEYS>
AAADccByMAAEAAAAAAAAAAAAAAAAAAAAAAAsAAAAAAAAAAABgAAAHgAACAAADAzhngYuhpIIEgCgAxRnRASCgCAxYCAA2CA9TJgKN2LSkZOEcAhnwBHY2AfwUAMOgAAAAAAAAAAAAAAAAAAAAAAAAAAAAA==

> <PUBCHEM_IUPAC_OPENEYE_NAME>
4,5-bis(hydroxymethyl)-2-methyl-pyridin-3-ol;hydrochloride

> <PUBCHEM_IUPAC_CAS_NAME>
4,5-bis(hydroxymethyl)-2-methyl-3-pyridinol;hydrochloride

> <PUBCHEM_IUPAC_NAME_MARKUP>
4,5-bis(hydroxymethyl)-2-methylpyridin-3-ol;hydrochloride

> <PUBCHEM_IUPAC_NAME>
4,5-bis(hydroxymethyl)-2-methylpyridin-3-ol;hydrochloride

> <PUBCHEM_IUPAC_SYSTEMATIC_NAME>
4,5-bis(hydroxymethyl)-2-methyl-pyridin-3-ol;hydrochloride

> <PUBCHEM_IUPAC_TRADITIONAL_NAME>
2-methyl-4,5-dimethylol-pyridin-3-ol;hydrochloride

> <PUBCHEM_IUPAC_INCHI>
InChI=1S/C8H11NO3.ClH/c1-5-8(12)7(4-11)6(3-10)2-9-5;/h2,10-12H,3-4H2,1H3;1H

> <PUBCHEM_IUPAC_INCHIKEY>
ZUFQODAHGAHPFQ-UHFFFAOYSA-N

> <PUBCHEM_EXACT_MASS>
205.050571

> <PUBCHEM_MOLECULAR_FORMULA>
C8H12ClNO3

> <PUBCHEM_MOLECULAR_WEIGHT>
205.64

> <PUBCHEM_OPENEYE_CAN_SMILES>
CC1=NC=C(C(=C1O)CO)CO.Cl

> <PUBCHEM_OPENEYE_ISO_SMILES>
CC1=NC=C(C(=C1O)CO)CO.Cl

> <PUBCHEM_CACTVS_TPSA>
73.6

> <PUBCHEM_MONOISOTOPIC_WEIGHT>
205.050571

> <PUBCHEM_TOTAL_CHARGE>
0

> <PUBCHEM_HEAVY_ATOM_COUNT>
13

> <PUBCHEM_ATOM_DEF_STEREO_COUNT>
0

> <PUBCHEM_ATOM_UDEF_STEREO_COUNT>
0

> <PUBCHEM_BOND_DEF_STEREO_COUNT>
0

> <PUBCHEM_BOND_UDEF_STEREO_COUNT>
0

> <PUBCHEM_ISOTOPIC_ATOM_COUNT>
0

> <PUBCHEM_COMPONENT_COUNT>
2

> <PUBCHEM_CACTVS_TAUTO_COUNT>
-1

> <PUBCHEM_COORDINATE_TYPE>
1
5
255

> <PUBCHEM_BONDANNOTATIONS>
5  12  8
5  9  8
6  7  8
6  8  8
7  12  8
8  9  8

$$$$
5997
  -OEChem-04052116402D

 74 77  0     1  0  0  0  0  0999 V2000
    2.5357   -3.6598    0.0000 O   0  0  0  0  0  0  0  0  0  0  0  0
    7.9288   -0.6074    0.0000 C   0  0  1  0  0  0  0  0  0  0  0  0
    7.9288   -1.6074    0.0000 C   0  0  2  0  0  0  0  0  0  0  0  0
    7.0628   -2.1074    0.0000 C   0  0  1  0  0  0  0  0  0  0  0  0
    6.1968   -1.6074    0.0000 C   0  0  1  0  0  0  0  0  0  0  0  0
    8.8750   -0.3027    0.0000 C   0  0  2  0  0  0  0  0  0  0  0  0
    7.0628   -0.1074    0.0000 C   0  0  0  0  0  0  0  0  0  0  0  0
    5.2868   -2.1143    0.0000 C   0  0  2  0  0  0  0  0  0  0  0  0
    8.8750   -1.9122    0.0000 C   0  0  0  0  0  0  0  0  0  0  0  0
    6.1968   -0.6074    0.0000 C   0  0  0  0  0  0  0  0  0  0  0  0
    9.4586   -1.1074    0.0000 C   0  0  0  0  0  0  0  0  0  0  0  0
    7.0789   -3.1489    0.0000 C   0  0  0  0  0  0  0  0  0  0  0  0
    9.1857    0.6478    0.0000 C   0  0  1  0  0  0  0  0  0  0  0  0
    7.9288    0.3926    0.0000 C   0  0  0  0  0  0  0  0  0  0  0  0
    5.2787   -3.1559    0.0000 C   0  0  0  0  0  0  0  0  0  0  0  0
    4.3599   -1.5502    0.0000 C   0  0  0  0  0  0  0  0  0  0  0  0
    6.1808   -3.6767    0.0000 C   0  0  0  0  0  0  0  0  0  0  0  0
    5.2945   -1.1143    0.0000 C   0  0  0  0  0  0  0  0  0  0  0  0
    4.3433   -3.7056    0.0000 C   0  0  0  0  0  0  0  0  0  0  0  0
    3.4120   -2.0781    0.0000 C   0  0  0  0  0  0  0  0  0  0  0  0
   10.1642    0.8540    0.0000 C   0  0  0  0  0  0  0  0  0  0  0  0
    3.4037   -3.1631    0.0000 C   0  0  2  0  0  0  0  0  0  0  0  0
    8.5179    1.3921    0.0000 C   0  0  0  0  0  0  0  0  0  0  0  0
   10.4749    1.8046    0.0000 C   0  0  0  0  0  0  0  0  0  0  0  0
   11.4534    2.0108    0.0000 C   0  0  0  0  0  0  0  0  0  0  0  0
   11.7640    2.9613    0.0000 C   0  0  0  0  0  0  0  0  0  0  0  0
   12.7425    3.1675    0.0000 C   0  0  0  0  0  0  0  0  0  0  0  0
   11.0962    3.7056    0.0000 C   0  0  0  0  0  0  0  0  0  0  0  0
    8.0188   -2.4527    0.0000 H   0  0  0  0  0  0  0  0  0  0  0  0
    7.8022   -2.5267    0.0000 H   0  0  0  0  0  0  0  0  0  0  0  0
    6.9329   -1.1824    0.0000 H   0  0  0  0  0  0  0  0  0  0  0  0
    9.7148   -0.1708    0.0000 H   0  0  0  0  0  0  0  0  0  0  0  0
    7.4613    0.3675    0.0000 H   0  0  0  0  0  0  0  0  0  0  0  0
    6.6643    0.3675    0.0000 H   0  0  0  0  0  0  0  0  0  0  0  0
    8.6240   -2.4791    0.0000 H   0  0  0  0  0  0  0  0  0  0  0  0
    9.4124   -2.2214    0.0000 H   0  0  0  0  0  0  0  0  0  0  0  0
    5.9847   -0.0248    0.0000 H   0  0  0  0  0  0  0  0  0  0  0  0
    5.5862   -0.7151    0.0000 H   0  0  0  0  0  0  0  0  0  0  0  0
    9.9195   -1.5222    0.0000 H   0  0  0  0  0  0  0  0  0  0  0  0
    9.9195   -0.6927    0.0000 H   0  0  0  0  0  0  0  0  0  0  0  0
    7.2969   -3.7293    0.0000 H   0  0  0  0  0  0  0  0  0  0  0  0
    7.6880   -3.0334    0.0000 H   0  0  0  0  0  0  0  0  0  0  0  0
    9.3783    1.2371    0.0000 H   0  0  0  0  0  0  0  0  0  0  0  0
    8.5488    0.3926    0.0000 H   0  0  0  0  0  0  0  0  0  0  0  0
    7.9288    1.0126    0.0000 H   0  0  0  0  0  0  0  0  0  0  0  0
    7.3088    0.3926    0.0000 H   0  0  0  0  0  0  0  0  0  0  0  0
    4.7681   -1.0835    0.0000 H   0  0  0  0  0  0  0  0  0  0  0  0
    3.9700   -1.0682    0.0000 H   0  0  0  0  0  0  0  0  0  0  0  0
    6.1832   -4.2967    0.0000 H   0  0  0  0  0  0  0  0  0  0  0  0
    5.9145   -1.1191    0.0000 H   0  0  0  0  0  0  0  0  0  0  0  0
    5.2993   -0.4943    0.0000 H   0  0  0  0  0  0  0  0  0  0  0  0
    4.6745   -1.1095    0.0000 H   0  0  0  0  0  0  0  0  0  0  0  0
    3.9460   -4.1816    0.0000 H   0  0  0  0  0  0  0  0  0  0  0  0
    4.7443   -4.1785    0.0000 H   0  0  0  0  0  0  0  0  0  0  0  0
    3.2075   -1.4929    0.0000 H   0  0  0  0  0  0  0  0  0  0  0  0
    2.8004   -2.1795    0.0000 H   0  0  0  0  0  0  0  0  0  0  0  0
   10.1848    0.2344    0.0000 H   0  0  0  0  0  0  0  0  0  0  0  0
   10.7780    0.7667    0.0000 H   0  0  0  0  0  0  0  0  0  0  0  0
    3.4025   -3.7831    0.0000 H   0  0  0  0  0  0  0  0  0  0  0  0
    8.9793    1.8062    0.0000 H   0  0  0  0  0  0  0  0  0  0  0  0
    8.1038    1.8536    0.0000 H   0  0  0  0  0  0  0  0  0  0  0  0
    8.0564    0.9781    0.0000 H   0  0  0  0  0  0  0  0  0  0  0  0
   10.4543    2.4242    0.0000 H   0  0  0  0  0  0  0  0  0  0  0  0
    9.8611    1.8919    0.0000 H   0  0  0  0  0  0  0  0  0  0  0  0
    2.0000   -3.3477    0.0000 H   0  0  0  0  0  0  0  0  0  0  0  0
   11.4739    1.3911    0.0000 H   0  0  0  0  0  0  0  0  0  0  0  0
   12.0672    1.9234    0.0000 H   0  0  0  0  0  0  0  0  0  0  0  0
   12.1781    2.4998    0.0000 H   0  0  0  0  0  0  0  0  0  0  0  0
   12.8704    2.5608    0.0000 H   0  0  0  0  0  0  0  0  0  0  0  0
   13.3492    3.2954    0.0000 H   0  0  0  0  0  0  0  0  0  0  0  0
   12.6147    3.7742    0.0000 H   0  0  0  0  0  0  0  0  0  0  0  0
   11.5577    4.1197    0.0000 H   0  0  0  0  0  0  0  0  0  0  0  0
   10.6821    4.1671    0.0000 H   0  0  0  0  0  0  0  0  0  0  0  0
   10.6347    3.2915    0.0000 H   0  0  0  0  0  0  0  0  0  0  0  0
 22  1  1  1  0  0  0
  1 65  1  0  0  0  0
  2  3  1  0  0  0  0
  2  6  1  0  0  0  0
  2  7  1  0  0  0  0
  2 14  1  1  0  0  0
  3  4  1  0  0  0  0
  3  9  1  0  0  0  0
  3 29  1  6  0  0  0
  4  5  1  0  0  0  0
  4 12  1  0  0  0  0
  4 30  1  1  0  0  0
  5  8  1  0  0  0  0
  5 10  1  0  0  0  0
  5 31  1  6  0  0  0
  6 11  1  0  0  0  0
  6 13  1  0  0  0  0
  6 32  1  6  0  0  0
  7 10  1  0  0  0  0
  7 33  1  0  0  0  0
  7 34  1  0  0  0  0
  8 15  1  0  0  0  0
  8 16  1  0  0  0  0
  8 18  1  1  0  0  0
  9 11  1  0  0  0  0
  9 35  1  0  0  0  0
  9 36  1  0  0  0  0
 10 37  1  0  0  0  0
 10 38  1  0  0  0  0
 11 39  1  0  0  0  0
 11 40  1  0  0  0  0
 12 17  1  0  0  0  0
 12 41  1  0  0  0  0
 12 42  1  0  0  0  0
 13 21  1  0  0  0  0
 13 23  1  6  0  0  0
 13 43  1  0  0  0  0
 14 44  1  0  0  0  0
 14 45  1  0  0  0  0
 14 46  1  0  0  0  0
 15 17  2  0  0  0  0
 15 19  1  0  0  0  0
 16 20  1  0  0  0  0
 16 47  1  0  0  0  0
 16 48  1  0  0  0  0
 17 49  1  0  0  0  0
 18 50  1  0  0  0  0
 18 51  1  0  0  0  0
 18 52  1  0  0  0  0
 19 22  1  0  0  0  0
 19 53  1  0  0  0  0
 19 54  1  0  0  0  0
 20 22  1  0  0  0  0
 20 55  1  0  0  0  0
 20 56  1  0  0  0  0
 21 24  1  0  0  0  0
 21 57  1  0  0  0  0
 21 58  1  0  0  0  0
 22 59  1  0  0  0  0
 23 60  1  0  0  0  0
 23 61  1  0  0  0  0
 23 62  1  0  0  0  0
 24 25  1  0  0  0  0
 24 63  1  0  0  0  0
 24 64  1  0  0  0  0
 25 26  1  0  0  0  0
 25 66  1  0  0  0  0
 25 67  1  0  0  0  0
 26 27  1  0  0  0  0
 26 28  1  0  0  0  0
 26 68  1  0  0  0  0
 27 69  1  0  0  0  0
 27 70  1  0  0  0  0
 27 71  1  0  0  0  0
 28 72  1  0  0  0  0
 28 73  1  0  0  0  0
 28 74  1  0  0  0  0
M  END
> <PUBCHEM_COMPOUND_CID>
5997

> <PUBCHEM_COMPOUND_CANONICALIZED>
1

> <PUBCHEM_CACTVS_COMPLEXITY>
591

> <PUBCHEM_CACTVS_HBOND_ACCEPTOR>
1

> <PUBCHEM_CACTVS_HBOND_DONOR>
1

> <PUBCHEM_CACTVS_ROTATABLE_BOND>
5

> <PUBCHEM_CACTVS_SUBSKEYS>
AAADcfB4IAAAAAAAAAAAAAAAAAAAAYAAAAAwYIAAAAAAAGCAAAAAGgAACAAADxSggAICAAAAAgCAAiBCAAAAAAAgAAAACAAAAAgAEAIAAQAAQAAEwAAIAAOAwPAPgAAAAAAAAADAAAQAACAAAQAACAAAAA==

> <PUBCHEM_IUPAC_OPENEYE_NAME>
(3S,8S,9S,10R,13R,14S,17R)-17-[(1R)-1,5-dimethylhexyl]-10,13-dimethyl-2,3,4,7,8,9,11,12,14,15,16,17-dodecahydro-1H-cyclopenta[a]phenanthren-3-ol

> <PUBCHEM_IUPAC_CAS_NAME>
(3S,8S,9S,10R,13R,14S,17R)-10,13-dimethyl-17-[(2R)-6-methylheptan-2-yl]-2,3,4,7,8,9,11,12,14,15,16,17-dodecahydro-1H-cyclopenta[a]phenanthren-3-ol

> <PUBCHEM_IUPAC_NAME_MARKUP>
(3<I>S</I>,8<I>S</I>,9<I>S</I>,10<I>R</I>,13<I>R</I>,14<I>S</I>,17<I>R</I>)-10,13-dimethyl-17-[(2<I>R</I>)-6-methylheptan-2-yl]-2,3,4,7,8,9,11,12,14,15,16,17-dodecahydro-1<I>H</I>-cyclopenta[a]phenanthren-3-ol

> <PUBCHEM_IUPAC_NAME>
(3S,8S,9S,10R,13R,14S,17R)-10,13-dimethyl-17-[(2R)-6-methylheptan-2-yl]-2,3,4,7,8,9,11,12,14,15,16,17-dodecahydro-1H-cyclopenta[a]phenanthren-3-ol

> <PUBCHEM_IUPAC_SYSTEMATIC_NAME>
(3S,8S,9S,10R,13R,14S,17R)-10,13-dimethyl-17-[(2R)-6-methylheptan-2-yl]-2,3,4,7,8,9,11,12,14,15,16,17-dodecahydro-1H-cyclopenta[a]phenanthren-3-ol

> <PUBCHEM_IUPAC_TRADITIONAL_NAME>
(3S,8S,9S,10R,13R,14S,17R)-17-[(1R)-1,5-dimethylhexyl]-10,13-dimethyl-2,3,4,7,8,9,11,12,14,15,16,17-dodecahydro-1H-cyclopenta[a]phenanthren-3-ol

> <PUBCHEM_IUPAC_INCHI>
InChI=1S/C27H46O/c1-18(2)7-6-8-19(3)23-11-12-24-22-10-9-20-17-21(28)13-15-26(20,4)25(22)14-16-27(23,24)5/h9,18-19,21-25,28H,6-8,10-17H2,1-5H3/t19-,21+,22+,23-,24+,25+,26+,27-/m1/s1

> <PUBCHEM_IUPAC_INCHIKEY>
HVYWMOMLDIMFJA-DPAQBDIFSA-N

> <PUBCHEM_XLOGP3>
8.7

> <PUBCHEM_EXACT_MASS>
386.354866

> <PUBCHEM_MOLECULAR_FORMULA>
C27H46O

> <PUBCHEM_MOLECULAR_WEIGHT>
386.7

> <PUBCHEM_OPENEYE_CAN_SMILES>
CC(C)CCCC(C)C1CCC2C1(CCC3C2CC=C4C3(CCC(C4)O)C)C

> <PUBCHEM_OPENEYE_ISO_SMILES>
C[C@H](CCCC(C)C)[C@H]1CC[C@@H]2[C@@]1(CC[C@H]3[C@H]2CC=C4[C@@]3(CC[C@@H](C4)O)C)C

> <PUBCHEM_CACTVS_TPSA>
20.2

> <PUBCHEM_MONOISOTOPIC_WEIGHT>
386.354866

> <PUBCHEM_TOTAL_CHARGE>
0

> <PUBCHEM_HEAVY_ATOM_COUNT>
28

> <PUBCHEM_ATOM_DEF_STEREO_COUNT>
8

> <PUBCHEM_ATOM_UDEF_STEREO_COUNT>
0

> <PUBCHEM_BOND_DEF_STEREO_COUNT>
0

> <PUBCHEM_BOND_UDEF_STEREO_COUNT>
0

> <PUBCHEM_ISOTOPIC_ATOM_COUNT>
0

> <PUBCHEM_COMPONENT_COUNT>
1

> <PUBCHEM_CACTVS_TAUTO_COUNT>
-1

> <PUBCHEM_COORDINATE_TYPE>
1
5
255

> <PUBCHEM_BONDANNOTATIONS>
22  1  5
13  23  6
2  14  5
3  29  6
4  30  5
5  31  6
6  32  6
8  18  5

$$$$
5988
  -OEChem-04052116402D

 45 46  0     1  0  0  0  0  0999 V2000
    5.8671    0.7306    0.0000 O   0  0  0  0  0  0  0  0  0  0  0  0
    6.8671   -0.2694    0.0000 O   0  0  0  0  0  0  0  0  0  0  0  0
    5.1350   -0.2694    0.0000 O   0  0  0  0  0  0  0  0  0  0  0  0
    8.1271    1.9906    0.0000 O   0  0  0  0  0  0  0  0  0  0  0  0
    6.3671    3.2694    0.0000 O   0  0  0  0  0  0  0  0  0  0  0  0
    6.8671   -2.2694    0.0000 O   0  0  0  0  0  0  0  0  0  0  0  0
    5.1350   -3.2694    0.0000 O   0  0  0  0  0  0  0  0  0  0  0  0
    3.4030   -2.2694    0.0000 O   0  0  0  0  0  0  0  0  0  0  0  0
    8.5613    1.0907    0.0000 O   0  0  0  0  0  0  0  0  0  0  0  0
    4.3991    2.9688    0.0000 O   0  0  0  0  0  0  0  0  0  0  0  0
    2.5369   -0.7694    0.0000 O   0  0  0  0  0  0  0  0  0  0  0  0
    6.8671    0.7306    0.0000 C   0  0  1  0  0  0  0  0  0  0  0  0
    7.1761    1.6816    0.0000 C   0  0  2  0  0  0  0  0  0  0  0  0
    6.3671    2.2694    0.0000 C   0  0  1  0  0  0  0  0  0  0  0  0
    5.5580    1.6816    0.0000 C   0  0  1  0  0  0  0  0  0  0  0  0
    6.0010   -0.7694    0.0000 C   0  0  1  0  0  0  0  0  0  0  0  0
    6.0010   -1.7694    0.0000 C   0  0  1  0  0  0  0  0  0  0  0  0
    5.1350   -2.2694    0.0000 C   0  0  2  0  0  0  0  0  0  0  0  0
    4.2690   -1.7694    0.0000 C   0  0  1  0  0  0  0  0  0  0  0  0
    4.2690   -0.7694    0.0000 C   0  0  1  0  0  0  0  0  0  0  0  0
    7.8181    0.4216    0.0000 C   0  0  0  0  0  0  0  0  0  0  0  0
    4.6070    1.9906    0.0000 C   0  0  0  0  0  0  0  0  0  0  0  0
    3.4030   -0.2694    0.0000 C   0  0  0  0  0  0  0  0  0  0  0  0
    7.6145    1.2432    0.0000 H   0  0  0  0  0  0  0  0  0  0  0  0
    6.9195    2.5509    0.0000 H   0  0  0  0  0  0  0  0  0  0  0  0
    5.1196    1.2432    0.0000 H   0  0  0  0  0  0  0  0  0  0  0  0
    6.0010   -0.1494    0.0000 H   0  0  0  0  0  0  0  0  0  0  0  0
    6.0010   -2.3894    0.0000 H   0  0  0  0  0  0  0  0  0  0  0  0
    4.5981   -2.5794    0.0000 H   0  0  0  0  0  0  0  0  0  0  0  0
    4.2690   -2.3894    0.0000 H   0  0  0  0  0  0  0  0  0  0  0  0
    4.2690   -0.1494    0.0000 H   0  0  0  0  0  0  0  0  0  0  0  0
    7.5270   -0.1259    0.0000 H   0  0  0  0  0  0  0  0  0  0  0  0
    8.3067    0.0399    0.0000 H   0  0  0  0  0  0  0  0  0  0  0  0
    3.9874    1.9690    0.0000 H   0  0  0  0  0  0  0  0  0  0  0  0
    4.5207    1.3767    0.0000 H   0  0  0  0  0  0  0  0  0  0  0  0
    3.8015    0.2055    0.0000 H   0  0  0  0  0  0  0  0  0  0  0  0
    3.0044    0.2055    0.0000 H   0  0  0  0  0  0  0  0  0  0  0  0
    8.2560    2.5971    0.0000 H   0  0  0  0  0  0  0  0  0  0  0  0
    6.9040    3.5794    0.0000 H   0  0  0  0  0  0  0  0  0  0  0  0
    6.8671   -2.8894    0.0000 H   0  0  0  0  0  0  0  0  0  0  0  0
    4.5981   -3.5794    0.0000 H   0  0  0  0  0  0  0  0  0  0  0  0
    3.4030   -2.8894    0.0000 H   0  0  0  0  0  0  0  0  0  0  0  0
    9.1509    0.8991    0.0000 H   0  0  0  0  0  0  0  0  0  0  0  0
    3.8094    3.1604    0.0000 H   0  0  0  0  0  0  0  0  0  0  0  0
    2.0000   -0.4594    0.0000 H   0  0  0  0  0  0  0  0  0  0  0  0
  1 12  1  0  0  0  0
  1 15  1  0  0  0  0
 12  2  1  6  0  0  0
 16  2  1  6  0  0  0
  3 16  1  0  0  0  0
  3 20  1  0  0  0  0
 13  4  1  6  0  0  0
  4 38  1  0  0  0  0
 14  5  1  1  0  0  0
  5 39  1  0  0  0  0
 17  6  1  6  0  0  0
  6 40  1  0  0  0  0
 18  7  1  1  0  0  0
  7 41  1  0  0  0  0
 19  8  1  6  0  0  0
  8 42  1  0  0  0  0
  9 21  1  0  0  0  0
  9 43  1  0  0  0  0
 10 22  1  0  0  0  0
 10 44  1  0  0  0  0
 11 23  1  0  0  0  0
 11 45  1  0  0  0  0
 12 13  1  0  0  0  0
 12 21  1  0  0  0  0
 13 14  1  0  0  0  0
 13 24  1  0  0  0  0
 14 15  1  0  0  0  0
 14 25  1  0  0  0  0
 15 22  1  6  0  0  0
 15 26  1  0  0  0  0
 16 17  1  0  0  0  0
 16 27  1  0  0  0  0
 17 18  1  0  0  0  0
 17 28  1  0  0  0  0
 18 19  1  0  0  0  0
 18 29  1  0  0  0  0
 19 20  1  0  0  0  0
 19 30  1  0  0  0  0
 20 23  1  1  0  0  0
 20 31  1  0  0  0  0
 21 32  1  0  0  0  0
 21 33  1  0  0  0  0
 22 34  1  0  0  0  0
 22 35  1  0  0  0  0
 23 36  1  0  0  0  0
 23 37  1  0  0  0  0
M  END
> <PUBCHEM_COMPOUND_CID>
5988

> <PUBCHEM_COMPOUND_CANONICALIZED>
1

> <PUBCHEM_CACTVS_COMPLEXITY>
395

> <PUBCHEM_CACTVS_HBOND_ACCEPTOR>
11

> <PUBCHEM_CACTVS_HBOND_DONOR>
8

> <PUBCHEM_CACTVS_ROTATABLE_BOND>
5

> <PUBCHEM_CACTVS_SUBSKEYS>
AAADceBwPAAAAAAAAAAAAAAAAAAAASAAAAAkAAAAAAAAAAAAAAAAGgAACAAACBSwgAMACAAABgAAAAAAAAAAAAAAAAAAAAAAAAAREAIAAAAiQAAFAAAHAAHAYAwAAAAAAAAAAAAAAAAAAAAAAAAAAAAAAA==

> <PUBCHEM_IUPAC_OPENEYE_NAME>
(2R,3R,4S,5S,6R)-2-[(2S,3S,4S,5R)-3,4-dihydroxy-2,5-bis(hydroxymethyl)tetrahydrofuran-2-yl]oxy-6-(hydroxymethyl)tetrahydropyran-3,4,5-triol

> <PUBCHEM_IUPAC_CAS_NAME>
(2R,3R,4S,5S,6R)-2-[[(2S,3S,4S,5R)-3,4-dihydroxy-2,5-bis(hydroxymethyl)-2-oxolanyl]oxy]-6-(hydroxymethyl)oxane-3,4,5-triol

> <PUBCHEM_IUPAC_NAME_MARKUP>
(2<I>R</I>,3<I>R</I>,4<I>S</I>,5<I>S</I>,6<I>R</I>)-2-[(2<I>S</I>,3<I>S</I>,4<I>S</I>,5<I>R</I>)-3,4-dihydroxy-2,5-bis(hydroxymethyl)oxolan-2-yl]oxy-6-(hydroxymethyl)oxane-3,4,5-triol

> <PUBCHEM_IUPAC_NAME>
(2R,3R,4S,5S,6R)-2-[(2S,3S,4S,5R)-3,4-dihydroxy-2,5-bis(hydroxymethyl)oxolan-2-yl]oxy-6-(hydroxymethyl)oxane-3,4,5-triol

> <PUBCHEM_IUPAC_SYSTEMATIC_NAME>
(2R,3R,4S,5S,6R)-2-[(2S,3S,4S,5R)-2,5-bis(hydroxymethyl)-3,4-bis(oxidanyl)oxolan-2-yl]oxy-6-(hydroxymethyl)oxane-3,4,5-triol

> <PUBCHEM_IUPAC_TRADITIONAL_NAME>
(2R,3R,4S,5S,6R)-2-[(2S,3S,4S,5R)-3,4-dihydroxy-2,5-dimethylol-tetrahydrofuran-2-yl]oxy-6-methylol-tetrahydropyran-3,4,5-triol

> <PUBCHEM_IUPAC_INCHI>
InChI=1S/C12H22O11/c13-1-4-6(16)8(18)9(19)11(21-4)23-12(3-15)10(20)7(17)5(2-14)22-12/h4-11,13-20H,1-3H2/t4-,5-,6-,7-,8+,9-,10+,11-,12+/m1/s1

> <PUBCHEM_IUPAC_INCHIKEY>
CZMRCDWAGMRECN-UGDNZRGBSA-N

> <PUBCHEM_XLOGP3>
-3.7

> <PUBCHEM_EXACT_MASS>
342.116212

> <PUBCHEM_MOLECULAR_FORMULA>
C12H22O11

> <PUBCHEM_MOLECULAR_WEIGHT>
342.3

> <PUBCHEM_OPENEYE_CAN_SMILES>
C(C1C(C(C(C(O1)OC2(C(C(C(O2)CO)O)O)CO)O)O)O)O

> <PUBCHEM_OPENEYE_ISO_SMILES>
C([C@@H]1[C@H]([C@@H]([C@H]([C@H](O1)O[C@]2([C@H]([C@@H]([C@H](O2)CO)O)O)CO)O)O)O)O

> <PUBCHEM_CACTVS_TPSA>
190

> <PUBCHEM_MONOISOTOPIC_WEIGHT>
342.116212

> <PUBCHEM_TOTAL_CHARGE>
0

> <PUBCHEM_HEAVY_ATOM_COUNT>
23

> <PUBCHEM_ATOM_DEF_STEREO_COUNT>
9

> <PUBCHEM_ATOM_UDEF_STEREO_COUNT>
0

> <PUBCHEM_BOND_DEF_STEREO_COUNT>
0

> <PUBCHEM_BOND_UDEF_STEREO_COUNT>
0

> <PUBCHEM_ISOTOPIC_ATOM_COUNT>
0

> <PUBCHEM_COMPONENT_COUNT>
1

> <PUBCHEM_CACTVS_TAUTO_COUNT>
-1

> <PUBCHEM_COORDINATE_TYPE>
1
5
255

> <PUBCHEM_BONDANNOTATIONS>
15  22  6
12  2  6
16  2  6
20  23  5
13  4  6
14  5  5
17  6  6
18  7  5
19  8  6

$$$$
5959
  -OEChem-04052116402D

 32 32  0     1  0  0  0  0  0999 V2000
    4.2690    4.0000    0.0000 Cl  0  0  0  0  0  0  0  0  0  0  0  0
    6.0010    4.0000    0.0000 Cl  0  0  0  0  0  0  0  0  0  0  0  0
    2.5369    1.0000    0.0000 O   0  0  0  0  0  0  0  0  0  0  0  0
    6.0010    1.0000    0.0000 O   0  0  0  0  0  0  0  0  0  0  0  0
    6.0010    2.0000    0.0000 O   0  0  0  0  0  0  0  0  0  0  0  0
    2.5369   -4.0000    0.0000 O   0  5  0  0  0  0  0  0  0  0  0  0
    4.2690   -4.0000    0.0000 O   0  0  0  0  0  0  0  0  0  0  0  0
    4.2690    2.0000    0.0000 N   0  0  0  0  0  0  0  0  0  0  0  0
    3.4030   -3.5000    0.0000 N   0  3  0  0  0  0  0  0  0  0  0  0
    4.2690    1.0000    0.0000 C   0  0  1  0  0  0  0  0  0  0  0  0
    3.4030    0.5000    0.0000 C   0  0  1  0  0  0  0  0  0  0  0  0
    3.4030   -0.5000    0.0000 C   0  0  0  0  0  0  0  0  0  0  0  0
    5.1350    0.5000    0.0000 C   0  0  0  0  0  0  0  0  0  0  0  0
    4.2690   -1.0000    0.0000 C   0  0  0  0  0  0  0  0  0  0  0  0
    2.5369   -1.0000    0.0000 C   0  0  0  0  0  0  0  0  0  0  0  0
    5.1350    2.5000    0.0000 C   0  0  0  0  0  0  0  0  0  0  0  0
    4.2690   -2.0000    0.0000 C   0  0  0  0  0  0  0  0  0  0  0  0
    2.5369   -2.0000    0.0000 C   0  0  0  0  0  0  0  0  0  0  0  0
    3.4030   -2.5000    0.0000 C   0  0  0  0  0  0  0  0  0  0  0  0
    5.1350    3.5000    0.0000 C   0  0  0  0  0  0  0  0  0  0  0  0
    4.8059    1.3100    0.0000 H   0  0  0  0  0  0  0  0  0  0  0  0
    3.4030    1.1200    0.0000 H   0  0  0  0  0  0  0  0  0  0  0  0
    4.7365    0.0251    0.0000 H   0  0  0  0  0  0  0  0  0  0  0  0
    5.5335    0.0251    0.0000 H   0  0  0  0  0  0  0  0  0  0  0  0
    3.7320    2.3100    0.0000 H   0  0  0  0  0  0  0  0  0  0  0  0
    4.8059   -0.6900    0.0000 H   0  0  0  0  0  0  0  0  0  0  0  0
    2.0000   -0.6900    0.0000 H   0  0  0  0  0  0  0  0  0  0  0  0
    2.0000    0.6900    0.0000 H   0  0  0  0  0  0  0  0  0  0  0  0
    4.8059   -2.3100    0.0000 H   0  0  0  0  0  0  0  0  0  0  0  0
    2.0000   -2.3100    0.0000 H   0  0  0  0  0  0  0  0  0  0  0  0
    6.5380    0.6900    0.0000 H   0  0  0  0  0  0  0  0  0  0  0  0
    5.1350    4.1200    0.0000 H   0  0  0  0  0  0  0  0  0  0  0  0
  1 20  1  0  0  0  0
  2 20  1  0  0  0  0
 11  3  1  1  0  0  0
  3 28  1  0  0  0  0
  4 13  1  0  0  0  0
  4 31  1  0  0  0  0
  5 16  2  0  0  0  0
  6  9  1  0  0  0  0
  7  9  2  0  0  0  0
 10  8  1  6  0  0  0
  8 16  1  0  0  0  0
  8 25  1  0  0  0  0
  9 19  1  0  0  0  0
 10 11  1  0  0  0  0
 10 13  1  0  0  0  0
 10 21  1  0  0  0  0
 11 12  1  0  0  0  0
 11 22  1  0  0  0  0
 12 14  2  0  0  0  0
 12 15  1  0  0  0  0
 13 23  1  0  0  0  0
 13 24  1  0  0  0  0
 14 17  1  0  0  0  0
 14 26  1  0  0  0  0
 15 18  2  0  0  0  0
 15 27  1  0  0  0  0
 16 20  1  0  0  0  0
 17 19  2  0  0  0  0
 17 29  1  0  0  0  0
 18 19  1  0  0  0  0
 18 30  1  0  0  0  0
 20 32  1  0  0  0  0
M  CHG  2   6  -1   9   1
M  END
> <PUBCHEM_COMPOUND_CID>
5959

> <PUBCHEM_COMPOUND_CANONICALIZED>
1

> <PUBCHEM_CACTVS_COMPLEXITY>
342

> <PUBCHEM_CACTVS_HBOND_ACCEPTOR>
5

> <PUBCHEM_CACTVS_HBOND_DONOR>
3

> <PUBCHEM_CACTVS_ROTATABLE_BOND>
5

> <PUBCHEM_CACTVS_SUBSKEYS>
AAADccBzOAAGAAAAAAAAAAAAAAAAAAAAAAAwAAAAAAAAAAABAAAAHgIUCAAADD/hmMYwwILQQgCJAiVSUwCCAAAgAgAoiIAIbIpKNiKAkZHEcABl1gGY2AeQ0KEOCAAAAAAAAAAQAAAAAAAAAAAAAAAAAA==

> <PUBCHEM_IUPAC_OPENEYE_NAME>
2,2-dichloro-N-[(1R,2R)-2-hydroxy-1-(hydroxymethyl)-2-(4-nitrophenyl)ethyl]acetamide

> <PUBCHEM_IUPAC_CAS_NAME>
2,2-dichloro-N-[(1R,2R)-1,3-dihydroxy-1-(4-nitrophenyl)propan-2-yl]acetamide

> <PUBCHEM_IUPAC_NAME_MARKUP>
2,2-dichloro-<I>N</I>-[(1<I>R</I>,2<I>R</I>)-1,3-dihydroxy-1-(4-nitrophenyl)propan-2-yl]acetamide

> <PUBCHEM_IUPAC_NAME>
2,2-dichloro-N-[(1R,2R)-1,3-dihydroxy-1-(4-nitrophenyl)propan-2-yl]acetamide

> <PUBCHEM_IUPAC_SYSTEMATIC_NAME>
2,2-bis(chloranyl)-N-[(1R,2R)-1-(4-nitrophenyl)-1,3-bis(oxidanyl)propan-2-yl]ethanamide

> <PUBCHEM_IUPAC_TRADITIONAL_NAME>
2,2-dichloro-N-[(1R,2R)-2-hydroxy-1-methylol-2-(4-nitrophenyl)ethyl]acetamide

> <PUBCHEM_IUPAC_INCHI>
InChI=1S/C11H12Cl2N2O5/c12-10(13)11(18)14-8(5-16)9(17)6-1-3-7(4-2-6)15(19)20/h1-4,8-10,16-17H,5H2,(H,14,18)/t8-,9-/m1/s1

> <PUBCHEM_IUPAC_INCHIKEY>
WIIZWVCIJKGZOK-RKDXNWHRSA-N

> <PUBCHEM_XLOGP3>
1.1

> <PUBCHEM_EXACT_MASS>
322.012327

> <PUBCHEM_MOLECULAR_FORMULA>
C11H12Cl2N2O5

> <PUBCHEM_MOLECULAR_WEIGHT>
323.13

> <PUBCHEM_OPENEYE_CAN_SMILES>
C1=CC(=CC=C1C(C(CO)NC(=O)C(Cl)Cl)O)[N+](=O)[O-]

> <PUBCHEM_OPENEYE_ISO_SMILES>
C1=CC(=CC=C1[C@H]([C@@H](CO)NC(=O)C(Cl)Cl)O)[N+](=O)[O-]

> <PUBCHEM_CACTVS_TPSA>
115

> <PUBCHEM_MONOISOTOPIC_WEIGHT>
322.012327

> <PUBCHEM_TOTAL_CHARGE>
0

> <PUBCHEM_HEAVY_ATOM_COUNT>
20

> <PUBCHEM_ATOM_DEF_STEREO_COUNT>
2

> <PUBCHEM_ATOM_UDEF_STEREO_COUNT>
0

> <PUBCHEM_BOND_DEF_STEREO_COUNT>
0

> <PUBCHEM_BOND_UDEF_STEREO_COUNT>
0

> <PUBCHEM_ISOTOPIC_ATOM_COUNT>
0

> <PUBCHEM_COMPONENT_COUNT>
1

> <PUBCHEM_CACTVS_TAUTO_COUNT>
-1

> <PUBCHEM_COORDINATE_TYPE>
1
5
255

> <PUBCHEM_BONDANNOTATIONS>
12  14  8
12  15  8
14  17  8
15  18  8
17  19  8
18  19  8
11  3  5
10  8  6

$$$$
5780
  -OEChem-04052116402D

 26 25  0     1  0  0  0  0  0999 V2000
    5.1350   -1.2500    0.0000 O   0  0  0  0  0  0  0  0  0  0  0  0
    6.0010    1.2500    0.0000 O   0  0  0  0  0  0  0  0  0  0  0  0
    4.2690    1.2500    0.0000 O   0  0  0  0  0  0  0  0  0  0  0  0
    6.8671   -1.2500    0.0000 O   0  0  0  0  0  0  0  0  0  0  0  0
    2.5369    0.2500    0.0000 O   0  0  0  0  0  0  0  0  0  0  0  0
    8.5991   -0.2500    0.0000 O   0  0  0  0  0  0  0  0  0  0  0  0
    5.1350   -0.2500    0.0000 C   0  0  1  0  0  0  0  0  0  0  0  0
    6.0010    0.2500    0.0000 C   0  0  1  0  0  0  0  0  0  0  0  0
    4.2690    0.2500    0.0000 C   0  0  1  0  0  0  0  0  0  0  0  0
    6.8671   -0.2500    0.0000 C   0  0  2  0  0  0  0  0  0  0  0  0
    3.4030   -0.2500    0.0000 C   0  0  0  0  0  0  0  0  0  0  0  0
    7.7331    0.2500    0.0000 C   0  0  0  0  0  0  0  0  0  0  0  0
    5.6720   -0.5600    0.0000 H   0  0  0  0  0  0  0  0  0  0  0  0
    6.5380    0.5600    0.0000 H   0  0  0  0  0  0  0  0  0  0  0  0
    4.8059    0.5600    0.0000 H   0  0  0  0  0  0  0  0  0  0  0  0
    6.3301   -0.5600    0.0000 H   0  0  0  0  0  0  0  0  0  0  0  0
    3.0044   -0.7249    0.0000 H   0  0  0  0  0  0  0  0  0  0  0  0
    3.8015   -0.7249    0.0000 H   0  0  0  0  0  0  0  0  0  0  0  0
    8.1316    0.7249    0.0000 H   0  0  0  0  0  0  0  0  0  0  0  0
    7.3346    0.7249    0.0000 H   0  0  0  0  0  0  0  0  0  0  0  0
    4.5981   -1.5600    0.0000 H   0  0  0  0  0  0  0  0  0  0  0  0
    6.5380    1.5600    0.0000 H   0  0  0  0  0  0  0  0  0  0  0  0
    3.7320    1.5600    0.0000 H   0  0  0  0  0  0  0  0  0  0  0  0
    7.4040   -1.5600    0.0000 H   0  0  0  0  0  0  0  0  0  0  0  0
    2.0000   -0.0600    0.0000 H   0  0  0  0  0  0  0  0  0  0  0  0
    9.1360    0.0600    0.0000 H   0  0  0  0  0  0  0  0  0  0  0  0
  7  1  1  6  0  0  0
  1 21  1  0  0  0  0
  8  2  1  6  0  0  0
  2 22  1  0  0  0  0
  9  3  1  1  0  0  0
  3 23  1  0  0  0  0
 10  4  1  6  0  0  0
  4 24  1  0  0  0  0
  5 11  1  0  0  0  0
  5 25  1  0  0  0  0
  6 12  1  0  0  0  0
  6 26  1  0  0  0  0
  7  8  1  0  0  0  0
  7  9  1  0  0  0  0
  7 13  1  0  0  0  0
  8 10  1  0  0  0  0
  8 14  1  0  0  0  0
  9 11  1  0  0  0  0
  9 15  1  0  0  0  0
 10 12  1  0  0  0  0
 10 16  1  0  0  0  0
 11 17  1  0  0  0  0
 11 18  1  0  0  0  0
 12 19  1  0  0  0  0
 12 20  1  0  0  0  0
M  END
> <PUBCHEM_COMPOUND_CID>
5780

> <PUBCHEM_COMPOUND_CANONICALIZED>
1

> <PUBCHEM_CACTVS_COMPLEXITY>
105

> <PUBCHEM_CACTVS_HBOND_ACCEPTOR>
6

> <PUBCHEM_CACTVS_HBOND_DONOR>
6

> <PUBCHEM_CACTVS_ROTATABLE_BOND>
5

> <PUBCHEM_CACTVS_SUBSKEYS>
AAADccBgOAAAAAAAAAAAAAAAAAAAAAAAAAAAAAAAAAAAAAAAAAAAGgAACAAACBSggAIAAAAAAgAAAAAAAAAAAAAAAAAAAAAAAAABEAIAAAAAQAAFAAABAAHAYAQAAAAAAAAAAAAAAAAAAAAAAAAAAAAAAA==

> <PUBCHEM_IUPAC_OPENEYE_NAME>
(2R,3R,4R,5S)-hexane-1,2,3,4,5,6-hexol

> <PUBCHEM_IUPAC_CAS_NAME>
(2R,3R,4R,5S)-hexane-1,2,3,4,5,6-hexol

> <PUBCHEM_IUPAC_NAME_MARKUP>
(2<I>R</I>,3<I>R</I>,4<I>R</I>,5<I>S</I>)-hexane-1,2,3,4,5,6-hexol

> <PUBCHEM_IUPAC_NAME>
(2R,3R,4R,5S)-hexane-1,2,3,4,5,6-hexol

> <PUBCHEM_IUPAC_SYSTEMATIC_NAME>
(2R,3R,4R,5S)-hexane-1,2,3,4,5,6-hexol

> <PUBCHEM_IUPAC_TRADITIONAL_NAME>
(2R,3R,4R,5S)-hexane-1,2,3,4,5,6-hexol

> <PUBCHEM_IUPAC_INCHI>
InChI=1S/C6H14O6/c7-1-3(9)5(11)6(12)4(10)2-8/h3-12H,1-2H2/t3-,4+,5-,6-/m1/s1

> <PUBCHEM_IUPAC_INCHIKEY>
FBPFZTCFMRRESA-JGWLITMVSA-N

> <PUBCHEM_XLOGP3>
-3.1

> <PUBCHEM_EXACT_MASS>
182.079038

> <PUBCHEM_MOLECULAR_FORMULA>
C6H14O6

> <PUBCHEM_MOLECULAR_WEIGHT>
182.17

> <PUBCHEM_OPENEYE_CAN_SMILES>
C(C(C(C(C(CO)O)O)O)O)O

> <PUBCHEM_OPENEYE_ISO_SMILES>
C([C@H]([C@H]([C@@H]([C@H](CO)O)O)O)O)O

> <PUBCHEM_CACTVS_TPSA>
121

> <PUBCHEM_MONOISOTOPIC_WEIGHT>
182.079038

> <PUBCHEM_TOTAL_CHARGE>
0

> <PUBCHEM_HEAVY_ATOM_COUNT>
12

> <PUBCHEM_ATOM_DEF_STEREO_COUNT>
4

> <PUBCHEM_ATOM_UDEF_STEREO_COUNT>
0

> <PUBCHEM_BOND_DEF_STEREO_COUNT>
0

> <PUBCHEM_BOND_UDEF_STEREO_COUNT>
0

> <PUBCHEM_ISOTOPIC_ATOM_COUNT>
0

> <PUBCHEM_COMPONENT_COUNT>
1

> <PUBCHEM_CACTVS_TAUTO_COUNT>
-1

> <PUBCHEM_COORDINATE_TYPE>
1
5
255

> <PUBCHEM_BONDANNOTATIONS>
7  1  6
8  2  6
9  3  5
10  4  6

$$$$
5430
  -OEChem-04052116402D

 21 23  0     0  0  0  0  0  0999 V2000
    7.8007    0.3030    0.0000 S   0  0  0  0  0  0  0  0  0  0  0  0
    4.6783    0.6077    0.0000 N   0  0  0  0  0  0  0  0  0  0  0  0
    4.6783   -1.0018    0.0000 N   0  0  0  0  0  0  0  0  0  0  0  0
    6.8497   -1.0060    0.0000 N   0  0  0  0  0  0  0  0  0  0  0  0
    3.7320    0.3030    0.0000 C   0  0  0  0  0  0  0  0  0  0  0  0
    3.7320   -0.6970    0.0000 C   0  0  0  0  0  0  0  0  0  0  0  0
    5.2619   -0.1970    0.0000 C   0  0  0  0  0  0  0  0  0  0  0  0
    6.2619   -0.1970    0.0000 C   0  0  0  0  0  0  0  0  0  0  0  0
    2.8660    0.8030    0.0000 C   0  0  0  0  0  0  0  0  0  0  0  0
    2.8660   -1.1970    0.0000 C   0  0  0  0  0  0  0  0  0  0  0  0
    2.0000    0.3030    0.0000 C   0  0  0  0  0  0  0  0  0  0  0  0
    2.0000   -0.6970    0.0000 C   0  0  0  0  0  0  0  0  0  0  0  0
    6.8497    0.6120    0.0000 C   0  0  0  0  0  0  0  0  0  0  0  0
    7.8007   -0.6970    0.0000 C   0  0  0  0  0  0  0  0  0  0  0  0
    4.8709    1.1970    0.0000 H   0  0  0  0  0  0  0  0  0  0  0  0
    2.8660    1.4230    0.0000 H   0  0  0  0  0  0  0  0  0  0  0  0
    2.8660   -1.8170    0.0000 H   0  0  0  0  0  0  0  0  0  0  0  0
    1.4631    0.6130    0.0000 H   0  0  0  0  0  0  0  0  0  0  0  0
    1.4631   -1.0070    0.0000 H   0  0  0  0  0  0  0  0  0  0  0  0
    6.6581    1.2016    0.0000 H   0  0  0  0  0  0  0  0  0  0  0  0
    8.3023   -1.0614    0.0000 H   0  0  0  0  0  0  0  0  0  0  0  0
  1 13  1  0  0  0  0
  1 14  1  0  0  0  0
  2  5  1  0  0  0  0
  2  7  1  0  0  0  0
  2 15  1  0  0  0  0
  3  6  1  0  0  0  0
  3  7  2  0  0  0  0
  4  8  1  0  0  0  0
  4 14  2  0  0  0  0
  5  6  1  0  0  0  0
  5  9  2  0  0  0  0
  6 10  2  0  0  0  0
  7  8  1  0  0  0  0
  8 13  2  0  0  0  0
  9 11  1  0  0  0  0
  9 16  1  0  0  0  0
 10 12  1  0  0  0  0
 10 17  1  0  0  0  0
 11 12  2  0  0  0  0
 11 18  1  0  0  0  0
 12 19  1  0  0  0  0
 13 20  1  0  0  0  0
 14 21  1  0  0  0  0
M  END
> <PUBCHEM_COMPOUND_CID>
5430

> <PUBCHEM_COMPOUND_CANONICALIZED>
1

> <PUBCHEM_CACTVS_COMPLEXITY>
212

> <PUBCHEM_CACTVS_HBOND_ACCEPTOR>
3

> <PUBCHEM_CACTVS_HBOND_DONOR>
1

> <PUBCHEM_CACTVS_ROTATABLE_BOND>
1

> <PUBCHEM_CACTVS_SUBSKEYS>
AAADcYBzAABAAAAAAAAAAAAAAAAAAWLAAAAwAAAAAAAAAFgB/AAAHAQQAAAACAiFVwS10bbJkAikASZjZACC8K3xGrgJ2TQ4dJiIaKLgmZGUIAhokALIyCcQAAAAAAAAAAAAACAAAAAAAAAAQAAAAAAAAA==

> <PUBCHEM_IUPAC_OPENEYE_NAME>
4-(1H-benzimidazol-2-yl)thiazole

> <PUBCHEM_IUPAC_CAS_NAME>
4-(1H-benzimidazol-2-yl)thiazole

> <PUBCHEM_IUPAC_NAME_MARKUP>
4-(1<I>H</I>-benzimidazol-2-yl)-1,3-thiazole

> <PUBCHEM_IUPAC_NAME>
4-(1H-benzimidazol-2-yl)-1,3-thiazole

> <PUBCHEM_IUPAC_SYSTEMATIC_NAME>
4-(1H-benzimidazol-2-yl)-1,3-thiazole

> <PUBCHEM_IUPAC_TRADITIONAL_NAME>
4-(1H-benzimidazol-2-yl)thiazole

> <PUBCHEM_IUPAC_INCHI>
InChI=1S/C10H7N3S/c1-2-4-8-7(3-1)12-10(13-8)9-5-14-6-11-9/h1-6H,(H,12,13)

> <PUBCHEM_IUPAC_INCHIKEY>
WJCNZQLZVWNLKY-UHFFFAOYSA-N

> <PUBCHEM_XLOGP3>
2.5

> <PUBCHEM_EXACT_MASS>
201.036068

> <PUBCHEM_MOLECULAR_FORMULA>
C10H7N3S

> <PUBCHEM_MOLECULAR_WEIGHT>
201.25

> <PUBCHEM_OPENEYE_CAN_SMILES>
C1=CC=C2C(=C1)NC(=N2)C3=CSC=N3

> <PUBCHEM_OPENEYE_ISO_SMILES>
C1=CC=C2C(=C1)NC(=N2)C3=CSC=N3

> <PUBCHEM_CACTVS_TPSA>
69.8

> <PUBCHEM_MONOISOTOPIC_WEIGHT>
201.036068

> <PUBCHEM_TOTAL_CHARGE>
0

> <PUBCHEM_HEAVY_ATOM_COUNT>
14

> <PUBCHEM_ATOM_DEF_STEREO_COUNT>
0

> <PUBCHEM_ATOM_UDEF_STEREO_COUNT>
0

> <PUBCHEM_BOND_DEF_STEREO_COUNT>
0

> <PUBCHEM_BOND_UDEF_STEREO_COUNT>
0

> <PUBCHEM_ISOTOPIC_ATOM_COUNT>
0

> <PUBCHEM_COMPONENT_COUNT>
1

> <PUBCHEM_CACTVS_TAUTO_COUNT>
-1

> <PUBCHEM_COORDINATE_TYPE>
1
5
255

> <PUBCHEM_BONDANNOTATIONS>
1  13  8
1  14  8
10  12  8
11  12  8
2  5  8
2  7  8
3  6  8
3  7  8
4  14  8
4  8  8
5  6  8
5  9  8
6  10  8
8  13  8
9  11  8

$$$$
5234
  -OEChem-04052116402D

  2  0  0     0  0  0  0  0  0999 V2000
    3.0000    0.0000    0.0000 Cl  0  5  0  0  0  0  0  0  0  0  0  0
    2.0000    0.0000    0.0000 Na  0  3  0  0  0  0  0  0  0  0  0  0
M  CHG  2   1  -1   2   1
M  END
> <PUBCHEM_COMPOUND_CID>
5234

> <PUBCHEM_COMPOUND_CANONICALIZED>
1

> <PUBCHEM_CACTVS_COMPLEXITY>
2

> <PUBCHEM_CACTVS_HBOND_ACCEPTOR>
1

> <PUBCHEM_CACTVS_HBOND_DONOR>
0

> <PUBCHEM_CACTVS_ROTATABLE_BOND>
0

> <PUBCHEM_CACTVS_SUBSKEYS>
AAADcQAAACAEAAAAAAAAAAAAAAAAAAAAAAAAAAAAAAAAAAAAAAAAAAAAAAAAAAAAAAAAAAAAAAAAAAAAAAAAAAAAAAAAAAAAAAAAAAAAAAAAAAAAAAAAAAAAAAAAAAAAAAAAAAAAAAAAAAAAAAAAAAAAAA==

> <PUBCHEM_IUPAC_OPENEYE_NAME>
sodium;chloride

> <PUBCHEM_IUPAC_CAS_NAME>
sodium;chloride

> <PUBCHEM_IUPAC_NAME_MARKUP>
sodium;chloride

> <PUBCHEM_IUPAC_NAME>
sodium;chloride

> <PUBCHEM_IUPAC_SYSTEMATIC_NAME>
sodium;chloride

> <PUBCHEM_IUPAC_TRADITIONAL_NAME>
sodium;chloride

> <PUBCHEM_IUPAC_INCHI>
InChI=1S/ClH.Na/h1H;/q;+1/p-1

> <PUBCHEM_IUPAC_INCHIKEY>
FAPWRFPIFSIZLT-UHFFFAOYSA-M

> <PUBCHEM_EXACT_MASS>
57.958622

> <PUBCHEM_MOLECULAR_FORMULA>
ClNa

> <PUBCHEM_MOLECULAR_WEIGHT>
58.44

> <PUBCHEM_OPENEYE_CAN_SMILES>
[Na+].[Cl-]

> <PUBCHEM_OPENEYE_ISO_SMILES>
[Na+].[Cl-]

> <PUBCHEM_CACTVS_TPSA>
0

> <PUBCHEM_MONOISOTOPIC_WEIGHT>
57.958622

> <PUBCHEM_TOTAL_CHARGE>
0

> <PUBCHEM_HEAVY_ATOM_COUNT>
2

> <PUBCHEM_ATOM_DEF_STEREO_COUNT>
0

> <PUBCHEM_ATOM_UDEF_STEREO_COUNT>
0

> <PUBCHEM_BOND_DEF_STEREO_COUNT>
0

> <PUBCHEM_BOND_UDEF_STEREO_COUNT>
0

> <PUBCHEM_ISOTOPIC_ATOM_COUNT>
0

> <PUBCHEM_COMPONENT_COUNT>
2

> <PUBCHEM_CACTVS_TAUTO_COUNT>
-1

> <PUBCHEM_NONSTANDARDBOND>
1  2  7

> <PUBCHEM_COORDINATE_TYPE>
1
5
255

$$$$
4982
  -OEChem-04052116402D

 79 79  0     1  0  0  0  0  0999 V2000
    4.2690   -5.0950    0.0000 O   0  0  0  0  0  0  0  0  0  0  0  0
    6.0010   -5.0950    0.0000 O   0  0  0  0  0  0  0  0  0  0  0  0
    4.2690   -8.0950    0.0000 O   0  0  0  0  0  0  0  0  0  0  0  0
    2.5369   -7.0950    0.0000 O   0  0  0  0  0  0  0  0  0  0  0  0
    6.0010   -7.0950    0.0000 O   0  0  0  0  0  0  0  0  0  0  0  0
    2.5369   -4.0950    0.0000 O   0  0  0  0  0  0  0  0  0  0  0  0
    6.0010   -2.0950    0.0000 O   0  0  0  0  0  0  0  0  0  0  0  0
    7.7331   -4.0950    0.0000 N   0  0  0  0  0  0  0  0  0  0  0  0
    4.2690   -7.0950    0.0000 C   0  0  3  0  0  0  0  0  0  0  0  0
    3.4030   -6.5950    0.0000 C   0  0  3  0  0  0  0  0  0  0  0  0
    5.1350   -6.5950    0.0000 C   0  0  3  0  0  0  0  0  0  0  0  0
    3.4030   -5.5950    0.0000 C   0  0  3  0  0  0  0  0  0  0  0  0
    5.1350   -5.5950    0.0000 C   0  0  3  0  0  0  0  0  0  0  0  0
    2.5369   -5.0950    0.0000 C   0  0  0  0  0  0  0  0  0  0  0  0
    6.0010   -4.0950    0.0000 C   0  0  0  0  0  0  0  0  0  0  0  0
    6.8671   -3.5950    0.0000 C   0  0  3  0  0  0  0  0  0  0  0  0
   10.3312    3.4050    0.0000 C   0  0  0  0  0  0  0  0  0  0  0  0
   10.3312    2.4050    0.0000 C   0  0  0  0  0  0  0  0  0  0  0  0
   11.1972    3.9050    0.0000 C   0  0  0  0  0  0  0  0  0  0  0  0
    9.4651    1.9050    0.0000 C   0  0  0  0  0  0  0  0  0  0  0  0
    6.8671   -2.5950    0.0000 C   0  0  3  0  0  0  0  0  0  0  0  0
   11.1972    4.9050    0.0000 C   0  0  0  0  0  0  0  0  0  0  0  0
    9.4651    0.9050    0.0000 C   0  0  0  0  0  0  0  0  0  0  0  0
   12.0632    5.4050    0.0000 C   0  0  0  0  0  0  0  0  0  0  0  0
    8.5991    0.4050    0.0000 C   0  0  0  0  0  0  0  0  0  0  0  0
   12.0632    6.4050    0.0000 C   0  0  0  0  0  0  0  0  0  0  0  0
    8.5991   -0.5950    0.0000 C   0  0  0  0  0  0  0  0  0  0  0  0
    7.7331   -2.0950    0.0000 C   0  0  0  0  0  0  0  0  0  0  0  0
   12.9292    6.9050    0.0000 C   0  0  0  0  0  0  0  0  0  0  0  0
    7.7331   -1.0950    0.0000 C   0  0  0  0  0  0  0  0  0  0  0  0
   12.9292    7.9050    0.0000 C   0  0  0  0  0  0  0  0  0  0  0  0
   13.7953    8.4050    0.0000 C   0  0  0  0  0  0  0  0  0  0  0  0
    3.7320   -7.4050    0.0000 H   0  0  0  0  0  0  0  0  0  0  0  0
    3.4030   -7.2150    0.0000 H   0  0  0  0  0  0  0  0  0  0  0  0
    5.1350   -7.2150    0.0000 H   0  0  0  0  0  0  0  0  0  0  0  0
    3.4030   -4.9750    0.0000 H   0  0  0  0  0  0  0  0  0  0  0  0
    5.1350   -4.9750    0.0000 H   0  0  0  0  0  0  0  0  0  0  0  0
    1.9264   -4.9873    0.0000 H   0  0  0  0  0  0  0  0  0  0  0  0
    2.3249   -5.6776    0.0000 H   0  0  0  0  0  0  0  0  0  0  0  0
    5.7890   -3.5124    0.0000 H   0  0  0  0  0  0  0  0  0  0  0  0
    5.3905   -4.2027    0.0000 H   0  0  0  0  0  0  0  0  0  0  0  0
    6.8671   -4.2150    0.0000 H   0  0  0  0  0  0  0  0  0  0  0  0
    3.7320   -8.4050    0.0000 H   0  0  0  0  0  0  0  0  0  0  0  0
    2.0000   -6.7850    0.0000 H   0  0  0  0  0  0  0  0  0  0  0  0
    6.5380   -6.7850    0.0000 H   0  0  0  0  0  0  0  0  0  0  0  0
   10.1191    3.9876    0.0000 H   0  0  0  0  0  0  0  0  0  0  0  0
    9.7206    3.2973    0.0000 H   0  0  0  0  0  0  0  0  0  0  0  0
   10.5432    1.8224    0.0000 H   0  0  0  0  0  0  0  0  0  0  0  0
   10.9417    2.5127    0.0000 H   0  0  0  0  0  0  0  0  0  0  0  0
   11.4092    3.3224    0.0000 H   0  0  0  0  0  0  0  0  0  0  0  0
   11.8078    4.0127    0.0000 H   0  0  0  0  0  0  0  0  0  0  0  0
    9.2531    2.4876    0.0000 H   0  0  0  0  0  0  0  0  0  0  0  0
    8.8546    1.7973    0.0000 H   0  0  0  0  0  0  0  0  0  0  0  0
    6.3301   -2.9050    0.0000 H   0  0  0  0  0  0  0  0  0  0  0  0
   10.9851    5.4876    0.0000 H   0  0  0  0  0  0  0  0  0  0  0  0
   10.5866    4.7973    0.0000 H   0  0  0  0  0  0  0  0  0  0  0  0
    9.6772    0.3224    0.0000 H   0  0  0  0  0  0  0  0  0  0  0  0
   10.0757    1.0127    0.0000 H   0  0  0  0  0  0  0  0  0  0  0  0
   12.2753    4.8224    0.0000 H   0  0  0  0  0  0  0  0  0  0  0  0
   12.6738    5.5127    0.0000 H   0  0  0  0  0  0  0  0  0  0  0  0
    8.3871    0.9876    0.0000 H   0  0  0  0  0  0  0  0  0  0  0  0
    7.9885    0.2973    0.0000 H   0  0  0  0  0  0  0  0  0  0  0  0
   11.8512    6.9876    0.0000 H   0  0  0  0  0  0  0  0  0  0  0  0
   11.4526    6.2973    0.0000 H   0  0  0  0  0  0  0  0  0  0  0  0
    2.0000   -3.7850    0.0000 H   0  0  0  0  0  0  0  0  0  0  0  0
    8.8112   -1.1776    0.0000 H   0  0  0  0  0  0  0  0  0  0  0  0
    9.2097   -0.4873    0.0000 H   0  0  0  0  0  0  0  0  0  0  0  0
    8.2700   -2.4050    0.0000 H   0  0  0  0  0  0  0  0  0  0  0  0
   13.1413    6.3224    0.0000 H   0  0  0  0  0  0  0  0  0  0  0  0
   13.5398    7.0127    0.0000 H   0  0  0  0  0  0  0  0  0  0  0  0
    8.2700   -3.7850    0.0000 H   0  0  0  0  0  0  0  0  0  0  0  0
    7.7331   -4.7150    0.0000 H   0  0  0  0  0  0  0  0  0  0  0  0
    7.1962   -0.7850    0.0000 H   0  0  0  0  0  0  0  0  0  0  0  0
   12.7172    8.4876    0.0000 H   0  0  0  0  0  0  0  0  0  0  0  0
   12.3187    7.7973    0.0000 H   0  0  0  0  0  0  0  0  0  0  0  0
    6.0010   -1.4750    0.0000 H   0  0  0  0  0  0  0  0  0  0  0  0
   14.1053    7.8681    0.0000 H   0  0  0  0  0  0  0  0  0  0  0  0
   14.3322    8.7150    0.0000 H   0  0  0  0  0  0  0  0  0  0  0  0
   13.4853    8.9419    0.0000 H   0  0  0  0  0  0  0  0  0  0  0  0
  1 12  1  0  0  0  0
  1 13  1  0  0  0  0
  2 13  1  0  0  0  0
  2 15  1  0  0  0  0
  3  9  1  0  0  0  0
  3 43  1  0  0  0  0
  4 10  1  0  0  0  0
  4 44  1  0  0  0  0
  5 11  1  0  0  0  0
  5 45  1  0  0  0  0
  6 14  1  0  0  0  0
  6 65  1  0  0  0  0
  7 21  1  0  0  0  0
  7 76  1  0  0  0  0
  8 16  1  0  0  0  0
  8 71  1  0  0  0  0
  8 72  1  0  0  0  0
  9 10  1  0  0  0  0
  9 11  1  0  0  0  0
  9 33  1  0  0  0  0
 10 12  1  0  0  0  0
 10 34  1  0  0  0  0
 11 13  1  0  0  0  0
 11 35  1  0  0  0  0
 12 14  1  0  0  0  0
 12 36  1  0  0  0  0
 13 37  1  0  0  0  0
 14 38  1  0  0  0  0
 14 39  1  0  0  0  0
 15 16  1  0  0  0  0
 15 40  1  0  0  0  0
 15 41  1  0  0  0  0
 16 21  1  0  0  0  0
 16 42  1  0  0  0  0
 17 18  1  0  0  0  0
 17 19  1  0  0  0  0
 17 46  1  0  0  0  0
 17 47  1  0  0  0  0
 18 20  1  0  0  0  0
 18 48  1  0  0  0  0
 18 49  1  0  0  0  0
 19 22  1  0  0  0  0
 19 50  1  0  0  0  0
 19 51  1  0  0  0  0
 20 23  1  0  0  0  0
 20 52  1  0  0  0  0
 20 53  1  0  0  0  0
 21 28  1  0  0  0  0
 21 54  1  0  0  0  0
 22 24  1  0  0  0  0
 22 55  1  0  0  0  0
 22 56  1  0  0  0  0
 23 25  1  0  0  0  0
 23 57  1  0  0  0  0
 23 58  1  0  0  0  0
 24 26  1  0  0  0  0
 24 59  1  0  0  0  0
 24 60  1  0  0  0  0
 25 27  1  0  0  0  0
 25 61  1  0  0  0  0
 25 62  1  0  0  0  0
 26 29  1  0  0  0  0
 26 63  1  0  0  0  0
 26 64  1  0  0  0  0
 27 30  1  0  0  0  0
 27 66  1  0  0  0  0
 27 67  1  0  0  0  0
 28 30  2  3  0  0  0
 28 68  1  0  0  0  0
 29 31  1  0  0  0  0
 29 69  1  0  0  0  0
 29 70  1  0  0  0  0
 30 73  1  0  0  0  0
 31 32  1  0  0  0  0
 31 74  1  0  0  0  0
 31 75  1  0  0  0  0
 32 77  1  0  0  0  0
 32 78  1  0  0  0  0
 32 79  1  0  0  0  0
M  END
> <PUBCHEM_COMPOUND_CID>
4982

> <PUBCHEM_COMPOUND_CANONICALIZED>
1

> <PUBCHEM_CACTVS_COMPLEXITY>
479

> <PUBCHEM_CACTVS_HBOND_ACCEPTOR>
8

> <PUBCHEM_CACTVS_HBOND_DONOR>
6

> <PUBCHEM_CACTVS_ROTATABLE_BOND>
18

> <PUBCHEM_CACTVS_SUBSKEYS>
AAADcfB6OAAAAAAAAAAAAAAAAAAAAAAAAAAkAAAAAAAAAAAAAAAAHgAQCAAACDzxgAcCCABABgCAACBCAAAAAAAgAAAICIAAAAgTFAIAAQAjUAAFkAAPEAPA4IwAAAAAAAAAAAAAAAAAAAAAAAAAAAAAAA==

> <PUBCHEM_IUPAC_OPENEYE_NAME>
2-(2-amino-3-hydroxy-octadec-4-enoxy)-6-(hydroxymethyl)tetrahydropyran-3,4,5-triol

> <PUBCHEM_IUPAC_CAS_NAME>
2-(2-amino-3-hydroxyoctadec-4-enoxy)-6-(hydroxymethyl)oxane-3,4,5-triol

> <PUBCHEM_IUPAC_NAME_MARKUP>
2-(2-amino-3-hydroxyoctadec-4-enoxy)-6-(hydroxymethyl)oxane-3,4,5-triol

> <PUBCHEM_IUPAC_NAME>
2-(2-amino-3-hydroxyoctadec-4-enoxy)-6-(hydroxymethyl)oxane-3,4,5-triol

> <PUBCHEM_IUPAC_SYSTEMATIC_NAME>
2-(2-azanyl-3-oxidanyl-octadec-4-enoxy)-6-(hydroxymethyl)oxane-3,4,5-triol

> <PUBCHEM_IUPAC_TRADITIONAL_NAME>
2-(2-amino-3-hydroxy-octadec-4-enoxy)-6-methylol-tetrahydropyran-3,4,5-triol

> <PUBCHEM_IUPAC_INCHI>
InChI=1S/C24H47NO7/c1-2-3-4-5-6-7-8-9-10-11-12-13-14-15-19(27)18(25)17-31-24-23(30)22(29)21(28)20(16-26)32-24/h14-15,18-24,26-30H,2-13,16-17,25H2,1H3

> <PUBCHEM_IUPAC_INCHIKEY>
HHJTWTPUPVQKNA-UHFFFAOYSA-N

> <PUBCHEM_XLOGP3_AA>
3.7

> <PUBCHEM_EXACT_MASS>
461.335253

> <PUBCHEM_MOLECULAR_FORMULA>
C24H47NO7

> <PUBCHEM_MOLECULAR_WEIGHT>
461.6

> <PUBCHEM_OPENEYE_CAN_SMILES>
CCCCCCCCCCCCCC=CC(C(COC1C(C(C(C(O1)CO)O)O)O)N)O

> <PUBCHEM_OPENEYE_ISO_SMILES>
CCCCCCCCCCCCCC=CC(C(COC1C(C(C(C(O1)CO)O)O)O)N)O

> <PUBCHEM_CACTVS_TPSA>
146

> <PUBCHEM_MONOISOTOPIC_WEIGHT>
461.335253

> <PUBCHEM_TOTAL_CHARGE>
0

> <PUBCHEM_HEAVY_ATOM_COUNT>
32

> <PUBCHEM_ATOM_DEF_STEREO_COUNT>
0

> <PUBCHEM_ATOM_UDEF_STEREO_COUNT>
7

> <PUBCHEM_BOND_DEF_STEREO_COUNT>
0

> <PUBCHEM_BOND_UDEF_STEREO_COUNT>
1

> <PUBCHEM_ISOTOPIC_ATOM_COUNT>
0

> <PUBCHEM_COMPONENT_COUNT>
1

> <PUBCHEM_CACTVS_TAUTO_COUNT>
-1

> <PUBCHEM_COORDINATE_TYPE>
1
5
255

> <PUBCHEM_BONDANNOTATIONS>
12  14  3
13  2  3
28  30  1
9  3  3
10  4  3
11  5  3
21  7  3
16  8  3

$$$$
4875
  -OEChem-04052116402D

  2  0  0     0  0  0  0  0  0999 V2000
    3.0000    0.0000    0.0000 I   0  5  0  0  0  0  0  0  0  0  0  0
    2.0000    0.0000    0.0000 K   0  3  0  0  0  0  0  0  0  0  0  0
M  CHG  2   1  -1   2   1
M  END
> <PUBCHEM_COMPOUND_CID>
4875

> <PUBCHEM_COMPOUND_CANONICALIZED>
1

> <PUBCHEM_CACTVS_COMPLEXITY>
2

> <PUBCHEM_CACTVS_HBOND_ACCEPTOR>
1

> <PUBCHEM_CACTVS_HBOND_DONOR>
0

> <PUBCHEM_CACTVS_ROTATABLE_BOND>
0

> <PUBCHEM_CACTVS_SUBSKEYS>
AAADcQAAAAAAQgAAAAAAAAAAAAAAAAAAAAAAAAAAAAAAAAAAAAAAAAAAAAAAAAAAAAAAAAAAAAAAAAAAAAAAAAAAAAAAAAAAAAAAAAAAAAAAAAAAAAAAAAAAAAAAAAAAAAAAAAAAAAAAAAAAAAAAAAAAAA==

> <PUBCHEM_IUPAC_OPENEYE_NAME>
potassium;iodide

> <PUBCHEM_IUPAC_CAS_NAME>
potassium;iodide

> <PUBCHEM_IUPAC_NAME_MARKUP>
potassium;iodide

> <PUBCHEM_IUPAC_NAME>
potassium;iodide

> <PUBCHEM_IUPAC_SYSTEMATIC_NAME>
potassium;iodide

> <PUBCHEM_IUPAC_TRADITIONAL_NAME>
potassium;iodide

> <PUBCHEM_IUPAC_INCHI>
InChI=1S/HI.K/h1H;/q;+1/p-1

> <PUBCHEM_IUPAC_INCHIKEY>
NLKNQRATVPKPDG-UHFFFAOYSA-M

> <PUBCHEM_EXACT_MASS>
165.86818

> <PUBCHEM_MOLECULAR_FORMULA>
IK

> <PUBCHEM_MOLECULAR_WEIGHT>
166.003

> <PUBCHEM_OPENEYE_CAN_SMILES>
[K+].[I-]

> <PUBCHEM_OPENEYE_ISO_SMILES>
[K+].[I-]

> <PUBCHEM_CACTVS_TPSA>
0

> <PUBCHEM_MONOISOTOPIC_WEIGHT>
165.86818

> <PUBCHEM_TOTAL_CHARGE>
0

> <PUBCHEM_HEAVY_ATOM_COUNT>
2

> <PUBCHEM_ATOM_DEF_STEREO_COUNT>
0

> <PUBCHEM_ATOM_UDEF_STEREO_COUNT>
0

> <PUBCHEM_BOND_DEF_STEREO_COUNT>
0

> <PUBCHEM_BOND_UDEF_STEREO_COUNT>
0

> <PUBCHEM_ISOTOPIC_ATOM_COUNT>
0

> <PUBCHEM_COMPONENT_COUNT>
2

> <PUBCHEM_CACTVS_TAUTO_COUNT>
-1

> <PUBCHEM_NONSTANDARDBOND>
1  2  7

> <PUBCHEM_COORDINATE_TYPE>
1
5
255

$$$$
3830
  -OEChem-04052116402D

 25 27  0     0  0  0  0  0  0999 V2000
    2.0000    2.0684    0.0000 O   0  0  0  0  0  0  0  0  0  0  0  0
    3.6750   -0.0194    0.0000 N   0  0  0  0  0  0  0  0  0  0  0  0
    5.4873   -1.2147    0.0000 N   0  0  0  0  0  0  0  0  0  0  0  0
    2.8090   -1.5194    0.0000 N   0  0  0  0  0  0  0  0  0  0  0  0
    5.4873   -2.8242    0.0000 N   0  0  0  0  0  0  0  0  0  0  0  0
    3.6750   -3.0194    0.0000 N   0  0  0  0  0  0  0  0  0  0  0  0
    2.8090    0.4806    0.0000 C   0  0  0  0  0  0  0  0  0  0  0  0
    4.5411   -1.5194    0.0000 C   0  0  0  0  0  0  0  0  0  0  0  0
    3.6750   -1.0194    0.0000 C   0  0  0  0  0  0  0  0  0  0  0  0
    2.8090    1.4806    0.0000 C   0  0  0  0  0  0  0  0  0  0  0  0
    4.5411   -2.5194    0.0000 C   0  0  0  0  0  0  0  0  0  0  0  0
    3.6180    2.0684    0.0000 C   0  0  0  0  0  0  0  0  0  0  0  0
    6.0709   -2.0194    0.0000 C   0  0  0  0  0  0  0  0  0  0  0  0
    3.3090    3.0194    0.0000 C   0  0  0  0  0  0  0  0  0  0  0  0
    2.8090   -2.5194    0.0000 C   0  0  0  0  0  0  0  0  0  0  0  0
    2.3090    3.0194    0.0000 C   0  0  0  0  0  0  0  0  0  0  0  0
    2.1984    0.5882    0.0000 H   0  0  0  0  0  0  0  0  0  0  0  0
    2.5970   -0.1020    0.0000 H   0  0  0  0  0  0  0  0  0  0  0  0
    4.2120    0.2906    0.0000 H   0  0  0  0  0  0  0  0  0  0  0  0
    5.6799   -0.6254    0.0000 H   0  0  0  0  0  0  0  0  0  0  0  0
    4.2077    1.8768    0.0000 H   0  0  0  0  0  0  0  0  0  0  0  0
    6.6909   -2.0194    0.0000 H   0  0  0  0  0  0  0  0  0  0  0  0
    3.6734    3.5210    0.0000 H   0  0  0  0  0  0  0  0  0  0  0  0
    2.2721   -2.8294    0.0000 H   0  0  0  0  0  0  0  0  0  0  0  0
    1.9446    3.5210    0.0000 H   0  0  0  0  0  0  0  0  0  0  0  0
  1 10  1  0  0  0  0
  1 16  1  0  0  0  0
  2  7  1  0  0  0  0
  2  9  1  0  0  0  0
  2 19  1  0  0  0  0
  3  8  1  0  0  0  0
  3 13  1  0  0  0  0
  3 20  1  0  0  0  0
  4  9  2  0  0  0  0
  4 15  1  0  0  0  0
  5 11  1  0  0  0  0
  5 13  2  0  0  0  0
  6 11  1  0  0  0  0
  6 15  2  0  0  0  0
  7 10  1  0  0  0  0
  7 17  1  0  0  0  0
  7 18  1  0  0  0  0
  8  9  1  0  0  0  0
  8 11  2  0  0  0  0
 10 12  2  0  0  0  0
 12 14  1  0  0  0  0
 12 21  1  0  0  0  0
 13 22  1  0  0  0  0
 14 16  2  0  0  0  0
 14 23  1  0  0  0  0
 15 24  1  0  0  0  0
 16 25  1  0  0  0  0
M  END
> <PUBCHEM_COMPOUND_CID>
3830

> <PUBCHEM_COMPOUND_CANONICALIZED>
1

> <PUBCHEM_CACTVS_COMPLEXITY>
239

> <PUBCHEM_CACTVS_HBOND_ACCEPTOR>
5

> <PUBCHEM_CACTVS_HBOND_DONOR>
2

> <PUBCHEM_CACTVS_ROTATABLE_BOND>
3

> <PUBCHEM_CACTVS_SUBSKEYS>
AAADccBzoAAAAAAAAAAAAAAAAAAAAWJAAAAsAAAAAAAAAFgB/gAAHgAQAAAACAzhlwY19L7JlECoAa5z5ACCiC21MKAJ2aGuXNiObjLE/XuXHSjswBPYqaaYEQIAAAAAAAAAAAAAAAAAAAAAAAAAAAAAAA==

> <PUBCHEM_IUPAC_OPENEYE_NAME>
N-(2-furylmethyl)-7H-purin-6-amine

> <PUBCHEM_IUPAC_CAS_NAME>
N-(2-furanylmethyl)-7H-purin-6-amine

> <PUBCHEM_IUPAC_NAME_MARKUP>
<I>N</I>-(furan-2-ylmethyl)-7<I>H</I>-purin-6-amine

> <PUBCHEM_IUPAC_NAME>
N-(furan-2-ylmethyl)-7H-purin-6-amine

> <PUBCHEM_IUPAC_SYSTEMATIC_NAME>
N-(furan-2-ylmethyl)-7H-purin-6-amine

> <PUBCHEM_IUPAC_TRADITIONAL_NAME>
kinetin

> <PUBCHEM_IUPAC_INCHI>
InChI=1S/C10H9N5O/c1-2-7(16-3-1)4-11-9-8-10(13-5-12-8)15-6-14-9/h1-3,5-6H,4H2,(H2,11,12,13,14,15)

> <PUBCHEM_IUPAC_INCHIKEY>
QANMHLXAZMSUEX-UHFFFAOYSA-N

> <PUBCHEM_XLOGP3_AA>
1

> <PUBCHEM_EXACT_MASS>
215.08071

> <PUBCHEM_MOLECULAR_FORMULA>
C10H9N5O

> <PUBCHEM_MOLECULAR_WEIGHT>
215.21

> <PUBCHEM_OPENEYE_CAN_SMILES>
C1=COC(=C1)CNC2=NC=NC3=C2NC=N3

> <PUBCHEM_OPENEYE_ISO_SMILES>
C1=COC(=C1)CNC2=NC=NC3=C2NC=N3

> <PUBCHEM_CACTVS_TPSA>
79.6

> <PUBCHEM_MONOISOTOPIC_WEIGHT>
215.08071

> <PUBCHEM_TOTAL_CHARGE>
0

> <PUBCHEM_HEAVY_ATOM_COUNT>
16

> <PUBCHEM_ATOM_DEF_STEREO_COUNT>
0

> <PUBCHEM_ATOM_UDEF_STEREO_COUNT>
0

> <PUBCHEM_BOND_DEF_STEREO_COUNT>
0

> <PUBCHEM_BOND_UDEF_STEREO_COUNT>
0

> <PUBCHEM_ISOTOPIC_ATOM_COUNT>
0

> <PUBCHEM_COMPONENT_COUNT>
1

> <PUBCHEM_CACTVS_TAUTO_COUNT>
-1

> <PUBCHEM_COORDINATE_TYPE>
1
5
255

> <PUBCHEM_BONDANNOTATIONS>
1  10  8
1  16  8
10  12  8
12  14  8
14  16  8
3  13  8
3  8  8
4  15  8
4  9  8
5  11  8
5  13  8
6  11  8
6  15  8
8  11  8
8  9  8

$$$$
3496
  -OEChem-04052116402D

 18 17  0     0  0  0  0  0  0999 V2000
    3.4030   -0.2015    0.0000 P   0  0  0  0  0  0  0  0  0  0  0  0
    2.5369   -0.7015    0.0000 O   0  0  0  0  0  0  0  0  0  0  0  0
    2.9030    0.6645    0.0000 O   0  0  0  0  0  0  0  0  0  0  0  0
    3.9030   -1.0675    0.0000 O   0  0  0  0  0  0  0  0  0  0  0  0
    7.7331    0.2985    0.0000 O   0  0  0  0  0  0  0  0  0  0  0  0
    6.8671   -1.2015    0.0000 O   0  0  0  0  0  0  0  0  0  0  0  0
    5.1350   -0.2015    0.0000 N   0  0  0  0  0  0  0  0  0  0  0  0
    4.2690    0.2985    0.0000 C   0  0  0  0  0  0  0  0  0  0  0  0
    6.0010    0.2985    0.0000 C   0  0  0  0  0  0  0  0  0  0  0  0
    6.8671   -0.2015    0.0000 C   0  0  0  0  0  0  0  0  0  0  0  0
    4.6675    0.7735    0.0000 H   0  0  0  0  0  0  0  0  0  0  0  0
    3.8705    0.7735    0.0000 H   0  0  0  0  0  0  0  0  0  0  0  0
    5.1350   -0.8215    0.0000 H   0  0  0  0  0  0  0  0  0  0  0  0
    6.3996    0.7735    0.0000 H   0  0  0  0  0  0  0  0  0  0  0  0
    5.6025    0.7735    0.0000 H   0  0  0  0  0  0  0  0  0  0  0  0
    2.0000   -0.3915    0.0000 H   0  0  0  0  0  0  0  0  0  0  0  0
    3.2130    1.2015    0.0000 H   0  0  0  0  0  0  0  0  0  0  0  0
    8.2700   -0.0115    0.0000 H   0  0  0  0  0  0  0  0  0  0  0  0
  1  2  1  0  0  0  0
  1  3  1  0  0  0  0
  1  4  2  0  0  0  0
  1  8  1  0  0  0  0
  2 16  1  0  0  0  0
  3 17  1  0  0  0  0
  5 10  1  0  0  0  0
  5 18  1  0  0  0  0
  6 10  2  0  0  0  0
  7  8  1  0  0  0  0
  7  9  1  0  0  0  0
  7 13  1  0  0  0  0
  8 11  1  0  0  0  0
  8 12  1  0  0  0  0
  9 10  1  0  0  0  0
  9 14  1  0  0  0  0
  9 15  1  0  0  0  0
M  END
> <PUBCHEM_COMPOUND_CID>
3496

> <PUBCHEM_COMPOUND_CANONICALIZED>
1

> <PUBCHEM_CACTVS_COMPLEXITY>
162

> <PUBCHEM_CACTVS_HBOND_ACCEPTOR>
6

> <PUBCHEM_CACTVS_HBOND_DONOR>
4

> <PUBCHEM_CACTVS_ROTATABLE_BOND>
4

> <PUBCHEM_CACTVS_SUBSKEYS>
AAADccBCOAIAAAAAAAAAAAAAAAAAAAAAAAAAAAAAAAAAAAAAAAAAHggQCCAAAADBgAQACALAAhAIQACQCIAAAAAAAAAAAICIAAACAAAAACAAAAAAAAAQAAAAAAAAAAAAAAAAAAAAAAAAAAAAAAAAAAAAAA==

> <PUBCHEM_IUPAC_OPENEYE_NAME>
2-(phosphonomethylamino)acetic acid

> <PUBCHEM_IUPAC_CAS_NAME>
2-(phosphonomethylamino)acetic acid

> <PUBCHEM_IUPAC_NAME_MARKUP>
2-(phosphonomethylamino)acetic acid

> <PUBCHEM_IUPAC_NAME>
2-(phosphonomethylamino)acetic acid

> <PUBCHEM_IUPAC_SYSTEMATIC_NAME>
2-(phosphonomethylamino)ethanoic acid

> <PUBCHEM_IUPAC_TRADITIONAL_NAME>
2-(phosphonomethylamino)acetic acid

> <PUBCHEM_IUPAC_INCHI>
InChI=1S/C3H8NO5P/c5-3(6)1-4-2-10(7,8)9/h4H,1-2H2,(H,5,6)(H2,7,8,9)

> <PUBCHEM_IUPAC_INCHIKEY>
XDDAORKBJWWYJS-UHFFFAOYSA-N

> <PUBCHEM_XLOGP3_AA>
-4.6

> <PUBCHEM_EXACT_MASS>
169.014009

> <PUBCHEM_MOLECULAR_FORMULA>
C3H8NO5P

> <PUBCHEM_MOLECULAR_WEIGHT>
169.07

> <PUBCHEM_OPENEYE_CAN_SMILES>
C(C(=O)O)NCP(=O)(O)O

> <PUBCHEM_OPENEYE_ISO_SMILES>
C(C(=O)O)NCP(=O)(O)O

> <PUBCHEM_CACTVS_TPSA>
107

> <PUBCHEM_MONOISOTOPIC_WEIGHT>
169.014009

> <PUBCHEM_TOTAL_CHARGE>
0

> <PUBCHEM_HEAVY_ATOM_COUNT>
10

> <PUBCHEM_ATOM_DEF_STEREO_COUNT>
0

> <PUBCHEM_ATOM_UDEF_STEREO_COUNT>
0

> <PUBCHEM_BOND_DEF_STEREO_COUNT>
0

> <PUBCHEM_BOND_UDEF_STEREO_COUNT>
0

> <PUBCHEM_ISOTOPIC_ATOM_COUNT>
0

> <PUBCHEM_COMPONENT_COUNT>
1

> <PUBCHEM_CACTVS_TAUTO_COUNT>
-1

> <PUBCHEM_COORDINATE_TYPE>
1
5
255

$$$$
3071
  -OEChem-04052116402D

 33 36  0     0  0  0  0  0  0999 V2000
    4.6783   -2.4033    0.0000 N   0  0  0  0  0  0  0  0  0  0  0  0
    7.5675    0.1891    0.0000 N   0  0  0  0  0  0  0  0  0  0  0  0
    4.9889    0.1567    0.0000 C   0  0  0  0  0  0  0  0  0  0  0  0
    4.6783   -0.7938    0.0000 C   0  0  0  0  0  0  0  0  0  0  0  0
    5.9674    0.3629    0.0000 C   0  0  0  0  0  0  0  0  0  0  0  0
    3.7320   -1.0986    0.0000 C   0  0  0  0  0  0  0  0  0  0  0  0
    6.3726    1.2707    0.0000 C   0  0  0  0  0  0  0  0  0  0  0  0
    3.7320   -2.0986    0.0000 C   0  0  0  0  0  0  0  0  0  0  0  0
    7.3667    1.1627    0.0000 C   0  0  0  0  0  0  0  0  0  0  0  0
    5.2619   -1.5986    0.0000 C   0  0  0  0  0  0  0  0  0  0  0  0
    6.7044   -0.3042    0.0000 C   0  0  0  0  0  0  0  0  0  0  0  0
    2.8660   -0.5986    0.0000 C   0  0  0  0  0  0  0  0  0  0  0  0
    5.9690    2.1856    0.0000 C   0  0  0  0  0  0  0  0  0  0  0  0
    2.8660   -2.5986    0.0000 C   0  0  0  0  0  0  0  0  0  0  0  0
    7.9573    1.9697    0.0000 C   0  0  0  0  0  0  0  0  0  0  0  0
    2.0000   -1.0986    0.0000 C   0  0  0  0  0  0  0  0  0  0  0  0
    6.5596    2.9926    0.0000 C   0  0  0  0  0  0  0  0  0  0  0  0
    2.0000   -2.0986    0.0000 C   0  0  0  0  0  0  0  0  0  0  0  0
    7.5537    2.8846    0.0000 C   0  0  0  0  0  0  0  0  0  0  0  0
    4.9684    0.7763    0.0000 H   0  0  0  0  0  0  0  0  0  0  0  0
    4.3751    0.2440    0.0000 H   0  0  0  0  0  0  0  0  0  0  0  0
    5.8819   -1.5986    0.0000 H   0  0  0  0  0  0  0  0  0  0  0  0
    6.6375   -0.9206    0.0000 H   0  0  0  0  0  0  0  0  0  0  0  0
    4.8709   -2.9926    0.0000 H   0  0  0  0  0  0  0  0  0  0  0  0
    8.1326   -0.0660    0.0000 H   0  0  0  0  0  0  0  0  0  0  0  0
    2.8660    0.0214    0.0000 H   0  0  0  0  0  0  0  0  0  0  0  0
    5.3526    2.2526    0.0000 H   0  0  0  0  0  0  0  0  0  0  0  0
    2.8660   -3.2186    0.0000 H   0  0  0  0  0  0  0  0  0  0  0  0
    8.5737    1.9028    0.0000 H   0  0  0  0  0  0  0  0  0  0  0  0
    1.4631   -0.7886    0.0000 H   0  0  0  0  0  0  0  0  0  0  0  0
    6.3094    3.5599    0.0000 H   0  0  0  0  0  0  0  0  0  0  0  0
    1.4631   -2.4086    0.0000 H   0  0  0  0  0  0  0  0  0  0  0  0
    7.9199    3.3850    0.0000 H   0  0  0  0  0  0  0  0  0  0  0  0
  1  8  1  0  0  0  0
  1 10  1  0  0  0  0
  1 24  1  0  0  0  0
  2  9  1  0  0  0  0
  2 11  1  0  0  0  0
  2 25  1  0  0  0  0
  3  4  1  0  0  0  0
  3  5  1  0  0  0  0
  3 20  1  0  0  0  0
  3 21  1  0  0  0  0
  4  6  1  0  0  0  0
  4 10  2  0  0  0  0
  5  7  1  0  0  0  0
  5 11  2  0  0  0  0
  6  8  1  0  0  0  0
  6 12  2  0  0  0  0
  7  9  1  0  0  0  0
  7 13  2  0  0  0  0
  8 14  2  0  0  0  0
  9 15  2  0  0  0  0
 10 22  1  0  0  0  0
 11 23  1  0  0  0  0
 12 16  1  0  0  0  0
 12 26  1  0  0  0  0
 13 17  1  0  0  0  0
 13 27  1  0  0  0  0
 14 18  1  0  0  0  0
 14 28  1  0  0  0  0
 15 19  1  0  0  0  0
 15 29  1  0  0  0  0
 16 18  2  0  0  0  0
 16 30  1  0  0  0  0
 17 19  2  0  0  0  0
 17 31  1  0  0  0  0
 18 32  1  0  0  0  0
 19 33  1  0  0  0  0
M  END
> <PUBCHEM_COMPOUND_CID>
3071

> <PUBCHEM_COMPOUND_CANONICALIZED>
1

> <PUBCHEM_CACTVS_COMPLEXITY>
286

> <PUBCHEM_CACTVS_HBOND_ACCEPTOR>
0

> <PUBCHEM_CACTVS_HBOND_DONOR>
2

> <PUBCHEM_CACTVS_ROTATABLE_BOND>
2

> <PUBCHEM_CACTVS_SUBSKEYS>
AAADccB7AAAAAAAAAAAAAAAAAAAAAWLAAAAwYAAAAAAAAFgB/gAAHAAQAAAADAjBHgQ8wPLJkACgAzRnRACCgCAxAiAI2aA4ZJgIIOLAkZGEIAhgkADIyAcQgMAOgAAAAAACAAAAAAAAAAQAAAAAAAAAAA==

> <PUBCHEM_IUPAC_OPENEYE_NAME>
3-(1H-indol-3-ylmethyl)-1H-indole

> <PUBCHEM_IUPAC_CAS_NAME>
3-(1H-indol-3-ylmethyl)-1H-indole

> <PUBCHEM_IUPAC_NAME_MARKUP>
3-(1<I>H</I>-indol-3-ylmethyl)-1<I>H</I>-indole

> <PUBCHEM_IUPAC_NAME>
3-(1H-indol-3-ylmethyl)-1H-indole

> <PUBCHEM_IUPAC_SYSTEMATIC_NAME>
3-(1H-indol-3-ylmethyl)-1H-indole

> <PUBCHEM_IUPAC_TRADITIONAL_NAME>
3-(1H-indol-3-ylmethyl)-1H-indole

> <PUBCHEM_IUPAC_INCHI>
InChI=1S/C17H14N2/c1-3-7-16-14(5-1)12(10-18-16)9-13-11-19-17-8-4-2-6-15(13)17/h1-8,10-11,18-19H,9H2

> <PUBCHEM_IUPAC_INCHIKEY>
VFTRKSBEFQDZKX-UHFFFAOYSA-N

> <PUBCHEM_XLOGP3>
4.3

> <PUBCHEM_EXACT_MASS>
246.115698

> <PUBCHEM_MOLECULAR_FORMULA>
C17H14N2

> <PUBCHEM_MOLECULAR_WEIGHT>
246.31

> <PUBCHEM_OPENEYE_CAN_SMILES>
C1=CC=C2C(=C1)C(=CN2)CC3=CNC4=CC=CC=C43

> <PUBCHEM_OPENEYE_ISO_SMILES>
C1=CC=C2C(=C1)C(=CN2)CC3=CNC4=CC=CC=C43

> <PUBCHEM_CACTVS_TPSA>
31.6

> <PUBCHEM_MONOISOTOPIC_WEIGHT>
246.115698

> <PUBCHEM_TOTAL_CHARGE>
0

> <PUBCHEM_HEAVY_ATOM_COUNT>
19

> <PUBCHEM_ATOM_DEF_STEREO_COUNT>
0

> <PUBCHEM_ATOM_UDEF_STEREO_COUNT>
0

> <PUBCHEM_BOND_DEF_STEREO_COUNT>
0

> <PUBCHEM_BOND_UDEF_STEREO_COUNT>
0

> <PUBCHEM_ISOTOPIC_ATOM_COUNT>
0

> <PUBCHEM_COMPONENT_COUNT>
1

> <PUBCHEM_CACTVS_TAUTO_COUNT>
-1

> <PUBCHEM_COORDINATE_TYPE>
1
5
255

> <PUBCHEM_BONDANNOTATIONS>
1  10  8
1  8  8
12  16  8
13  17  8
14  18  8
15  19  8
16  18  8
17  19  8
2  11  8
2  9  8
4  10  8
4  6  8
5  11  8
5  7  8
6  12  8
6  8  8
7  13  8
7  9  8
8  14  8
9  15  8

$$$$
3030
  -OEChem-04052116402D

 19 19  0     0  0  0  0  0  0999 V2000
    6.3301   -0.0600    0.0000 Cl  0  0  0  0  0  0  0  0  0  0  0  0
    2.8660   -2.0600    0.0000 Cl  0  0  0  0  0  0  0  0  0  0  0  0
    2.8660   -0.0600    0.0000 O   0  0  0  0  0  0  0  0  0  0  0  0
    5.4641    1.4400    0.0000 O   0  0  0  0  0  0  0  0  0  0  0  0
    3.7320    1.4400    0.0000 O   0  0  0  0  0  0  0  0  0  0  0  0
    4.5981   -0.0600    0.0000 C   0  0  0  0  0  0  0  0  0  0  0  0
    3.7320   -0.5600    0.0000 C   0  0  0  0  0  0  0  0  0  0  0  0
    5.4641   -0.5600    0.0000 C   0  0  0  0  0  0  0  0  0  0  0  0
    3.7320   -1.5600    0.0000 C   0  0  0  0  0  0  0  0  0  0  0  0
    5.4641   -1.5600    0.0000 C   0  0  0  0  0  0  0  0  0  0  0  0
    4.5981   -2.0600    0.0000 C   0  0  0  0  0  0  0  0  0  0  0  0
    4.5981    0.9400    0.0000 C   0  0  0  0  0  0  0  0  0  0  0  0
    2.0000   -0.5600    0.0000 C   0  0  0  0  0  0  0  0  0  0  0  0
    6.0010   -1.8700    0.0000 H   0  0  0  0  0  0  0  0  0  0  0  0
    4.5981   -2.6800    0.0000 H   0  0  0  0  0  0  0  0  0  0  0  0
    1.6900   -0.0231    0.0000 H   0  0  0  0  0  0  0  0  0  0  0  0
    1.4631   -0.8700    0.0000 H   0  0  0  0  0  0  0  0  0  0  0  0
    2.3100   -1.0969    0.0000 H   0  0  0  0  0  0  0  0  0  0  0  0
    5.4641    2.0600    0.0000 H   0  0  0  0  0  0  0  0  0  0  0  0
  1  8  1  0  0  0  0
  2  9  1  0  0  0  0
  3  7  1  0  0  0  0
  3 13  1  0  0  0  0
  4 12  1  0  0  0  0
  4 19  1  0  0  0  0
  5 12  2  0  0  0  0
  6  7  1  0  0  0  0
  6  8  2  0  0  0  0
  6 12  1  0  0  0  0
  7  9  2  0  0  0  0
  8 10  1  0  0  0  0
  9 11  1  0  0  0  0
 10 11  2  0  0  0  0
 10 14  1  0  0  0  0
 11 15  1  0  0  0  0
 13 16  1  0  0  0  0
 13 17  1  0  0  0  0
 13 18  1  0  0  0  0
M  END
> <PUBCHEM_COMPOUND_CID>
3030

> <PUBCHEM_COMPOUND_CANONICALIZED>
1

> <PUBCHEM_CACTVS_COMPLEXITY>
198

> <PUBCHEM_CACTVS_HBOND_ACCEPTOR>
3

> <PUBCHEM_CACTVS_HBOND_DONOR>
1

> <PUBCHEM_CACTVS_ROTATABLE_BOND>
2

> <PUBCHEM_CACTVS_SUBSKEYS>
AAADcYBwMAAGAAAAAAAAAAAAAAAAAAAAAAAwAAAAAAAAAAABAAAAGgIACAAADAaAmCIyDoAABgCIAiDSCAACCAAkJUAIiAEEC8gMJzeFNhqAcWAl4BEIvQeIyCCOAAAQIQAJCAAAACBCABIQAAAAAAAAAA==

> <PUBCHEM_IUPAC_OPENEYE_NAME>
3,6-dichloro-2-methoxy-benzoic acid

> <PUBCHEM_IUPAC_CAS_NAME>
3,6-dichloro-2-methoxybenzoic acid

> <PUBCHEM_IUPAC_NAME_MARKUP>
3,6-dichloro-2-methoxybenzoic acid

> <PUBCHEM_IUPAC_NAME>
3,6-dichloro-2-methoxybenzoic acid

> <PUBCHEM_IUPAC_SYSTEMATIC_NAME>
3,6-bis(chloranyl)-2-methoxy-benzoic acid

> <PUBCHEM_IUPAC_TRADITIONAL_NAME>
3,6-dichloro-2-methoxy-benzoic acid

> <PUBCHEM_IUPAC_INCHI>
InChI=1S/C8H6Cl2O3/c1-13-7-5(10)3-2-4(9)6(7)8(11)12/h2-3H,1H3,(H,11,12)

> <PUBCHEM_IUPAC_INCHIKEY>
IWEDIXLBFLAXBO-UHFFFAOYSA-N

> <PUBCHEM_XLOGP3>
2.2

> <PUBCHEM_EXACT_MASS>
219.969399

> <PUBCHEM_MOLECULAR_FORMULA>
C8H6Cl2O3

> <PUBCHEM_MOLECULAR_WEIGHT>
221.03

> <PUBCHEM_OPENEYE_CAN_SMILES>
COC1=C(C=CC(=C1C(=O)O)Cl)Cl

> <PUBCHEM_OPENEYE_ISO_SMILES>
COC1=C(C=CC(=C1C(=O)O)Cl)Cl

> <PUBCHEM_CACTVS_TPSA>
46.5

> <PUBCHEM_MONOISOTOPIC_WEIGHT>
219.969399

> <PUBCHEM_TOTAL_CHARGE>
0

> <PUBCHEM_HEAVY_ATOM_COUNT>
13

> <PUBCHEM_ATOM_DEF_STEREO_COUNT>
0

> <PUBCHEM_ATOM_UDEF_STEREO_COUNT>
0

> <PUBCHEM_BOND_DEF_STEREO_COUNT>
0

> <PUBCHEM_BOND_UDEF_STEREO_COUNT>
0

> <PUBCHEM_ISOTOPIC_ATOM_COUNT>
0

> <PUBCHEM_COMPONENT_COUNT>
1

> <PUBCHEM_CACTVS_TAUTO_COUNT>
-1

> <PUBCHEM_COORDINATE_TYPE>
1
5
255

> <PUBCHEM_BONDANNOTATIONS>
10  11  8
6  7  8
6  8  8
7  9  8
8  10  8
9  11  8

$$$$
2244
  -OEChem-04052116402D

 21 21  0     0  0  0  0  0  0999 V2000
    3.7320   -0.0600    0.0000 O   0  0  0  0  0  0  0  0  0  0  0  0
    6.3301    1.4400    0.0000 O   0  0  0  0  0  0  0  0  0  0  0  0
    4.5981    1.4400    0.0000 O   0  0  0  0  0  0  0  0  0  0  0  0
    2.8660   -1.5600    0.0000 O   0  0  0  0  0  0  0  0  0  0  0  0
    4.5981   -0.5600    0.0000 C   0  0  0  0  0  0  0  0  0  0  0  0
    5.4641   -0.0600    0.0000 C   0  0  0  0  0  0  0  0  0  0  0  0
    4.5981   -1.5600    0.0000 C   0  0  0  0  0  0  0  0  0  0  0  0
    6.3301   -0.5600    0.0000 C   0  0  0  0  0  0  0  0  0  0  0  0
    5.4641   -2.0600    0.0000 C   0  0  0  0  0  0  0  0  0  0  0  0
    6.3301   -1.5600    0.0000 C   0  0  0  0  0  0  0  0  0  0  0  0
    5.4641    0.9400    0.0000 C   0  0  0  0  0  0  0  0  0  0  0  0
    2.8660   -0.5600    0.0000 C   0  0  0  0  0  0  0  0  0  0  0  0
    2.0000   -0.0600    0.0000 C   0  0  0  0  0  0  0  0  0  0  0  0
    4.0611   -1.8700    0.0000 H   0  0  0  0  0  0  0  0  0  0  0  0
    6.8671   -0.2500    0.0000 H   0  0  0  0  0  0  0  0  0  0  0  0
    5.4641   -2.6800    0.0000 H   0  0  0  0  0  0  0  0  0  0  0  0
    6.8671   -1.8700    0.0000 H   0  0  0  0  0  0  0  0  0  0  0  0
    2.3100    0.4769    0.0000 H   0  0  0  0  0  0  0  0  0  0  0  0
    1.4631    0.2500    0.0000 H   0  0  0  0  0  0  0  0  0  0  0  0
    1.6900   -0.5969    0.0000 H   0  0  0  0  0  0  0  0  0  0  0  0
    6.3301    2.0600    0.0000 H   0  0  0  0  0  0  0  0  0  0  0  0
  1  5  1  0  0  0  0
  1 12  1  0  0  0  0
  2 11  1  0  0  0  0
  2 21  1  0  0  0  0
  3 11  2  0  0  0  0
  4 12  2  0  0  0  0
  5  6  1  0  0  0  0
  5  7  2  0  0  0  0
  6  8  2  0  0  0  0
  6 11  1  0  0  0  0
  7  9  1  0  0  0  0
  7 14  1  0  0  0  0
  8 10  1  0  0  0  0
  8 15  1  0  0  0  0
  9 10  2  0  0  0  0
  9 16  1  0  0  0  0
 10 17  1  0  0  0  0
 12 13  1  0  0  0  0
 13 18  1  0  0  0  0
 13 19  1  0  0  0  0
 13 20  1  0  0  0  0
M  END
> <PUBCHEM_COMPOUND_CID>
2244

> <PUBCHEM_COMPOUND_CANONICALIZED>
1

> <PUBCHEM_CACTVS_COMPLEXITY>
212

> <PUBCHEM_CACTVS_HBOND_ACCEPTOR>
4

> <PUBCHEM_CACTVS_HBOND_DONOR>
1

> <PUBCHEM_CACTVS_ROTATABLE_BOND>
3

> <PUBCHEM_CACTVS_SUBSKEYS>
AAADccBwOAAAAAAAAAAAAAAAAAAAAAAAAAAwAAAAAAAAAAABAAAAGgAACAAADASAmAAyDoAABgCIAiDSCAACCAAkIAAIiAEGCMgMJzaENRqCe2Cl4BEIuYeIyCCOAAAAAAAIAAAAAAAAABAAAAAAAAAAAA==

> <PUBCHEM_IUPAC_OPENEYE_NAME>
2-acetoxybenzoic acid

> <PUBCHEM_IUPAC_CAS_NAME>
2-acetyloxybenzoic acid

> <PUBCHEM_IUPAC_NAME_MARKUP>
2-acetyloxybenzoic acid

> <PUBCHEM_IUPAC_NAME>
2-acetyloxybenzoic acid

> <PUBCHEM_IUPAC_SYSTEMATIC_NAME>
2-acetyloxybenzoic acid

> <PUBCHEM_IUPAC_TRADITIONAL_NAME>
2-acetoxybenzoic acid

> <PUBCHEM_IUPAC_INCHI>
InChI=1S/C9H8O4/c1-6(10)13-8-5-3-2-4-7(8)9(11)12/h2-5H,1H3,(H,11,12)

> <PUBCHEM_IUPAC_INCHIKEY>
BSYNRYMUTXBXSQ-UHFFFAOYSA-N

> <PUBCHEM_XLOGP3>
1.2

> <PUBCHEM_EXACT_MASS>
180.042259

> <PUBCHEM_MOLECULAR_FORMULA>
C9H8O4

> <PUBCHEM_MOLECULAR_WEIGHT>
180.16

> <PUBCHEM_OPENEYE_CAN_SMILES>
CC(=O)OC1=CC=CC=C1C(=O)O

> <PUBCHEM_OPENEYE_ISO_SMILES>
CC(=O)OC1=CC=CC=C1C(=O)O

> <PUBCHEM_CACTVS_TPSA>
63.6

> <PUBCHEM_MONOISOTOPIC_WEIGHT>
180.042259

> <PUBCHEM_TOTAL_CHARGE>
0

> <PUBCHEM_HEAVY_ATOM_COUNT>
13

> <PUBCHEM_ATOM_DEF_STEREO_COUNT>
0

> <PUBCHEM_ATOM_UDEF_STEREO_COUNT>
0

> <PUBCHEM_BOND_DEF_STEREO_COUNT>
0

> <PUBCHEM_BOND_UDEF_STEREO_COUNT>
0

> <PUBCHEM_ISOTOPIC_ATOM_COUNT>
0

> <PUBCHEM_COMPONENT_COUNT>
1

> <PUBCHEM_CACTVS_TAUTO_COUNT>
-1

> <PUBCHEM_COORDINATE_TYPE>
1
5
255

> <PUBCHEM_BONDANNOTATIONS>
5  6  8
5  7  8
6  8  8
7  9  8
8  10  8
9  10  8

$$$$
1639
  -OEChem-04052116402D

 10 10  0     0  0  0  0  0  0999 V2000
    2.8090   -0.4594    0.0000 N   0  0  0  0  0  0  0  0  0  0  0  0
    3.3090    1.0794    0.0000 N   0  0  0  0  0  0  0  0  0  0  0  0
    2.0000    0.1284    0.0000 N   0  0  0  0  0  0  0  0  0  0  0  0
    4.5691   -0.1807    0.0000 N   0  0  0  0  0  0  0  0  0  0  0  0
    3.6180    0.1284    0.0000 C   0  0  0  0  0  0  0  0  0  0  0  0
    2.3090    1.0794    0.0000 C   0  0  0  0  0  0  0  0  0  0  0  0
    2.8090   -1.0794    0.0000 H   0  0  0  0  0  0  0  0  0  0  0  0
    1.9446    1.5810    0.0000 H   0  0  0  0  0  0  0  0  0  0  0  0
    5.0298    0.2342    0.0000 H   0  0  0  0  0  0  0  0  0  0  0  0
    4.6980   -0.7871    0.0000 H   0  0  0  0  0  0  0  0  0  0  0  0
  1  3  1  0  0  0  0
  1  5  1  0  0  0  0
  1  7  1  0  0  0  0
  2  5  2  0  0  0  0
  2  6  1  0  0  0  0
  3  6  2  0  0  0  0
  4  5  1  0  0  0  0
  4  9  1  0  0  0  0
  4 10  1  0  0  0  0
  6  8  1  0  0  0  0
M  END
> <PUBCHEM_COMPOUND_CID>
1639

> <PUBCHEM_COMPOUND_CANONICALIZED>
1

> <PUBCHEM_CACTVS_COMPLEXITY>
44.8

> <PUBCHEM_CACTVS_HBOND_ACCEPTOR>
3

> <PUBCHEM_CACTVS_HBOND_DONOR>
2

> <PUBCHEM_CACTVS_ROTATABLE_BOND>
0

> <PUBCHEM_CACTVS_SUBSKEYS>
AAADcYBDgAAAAAAAAAAAAAAAAAAAAWAAAAAAAAAAAAAAAAABgAAAFAAYAAAAAAAAAAQFEAZrEAAiAAABJAAQAAuQgIAFYAAIAACACAAAAAAAAAAQAAAAAAAAAAAAAAAAAAAAAAAAAAAAAAAAAAAAAAAAAA==

> <PUBCHEM_IUPAC_OPENEYE_NAME>
1H-1,2,4-triazol-5-amine

> <PUBCHEM_IUPAC_CAS_NAME>
1H-1,2,4-triazol-5-amine

> <PUBCHEM_IUPAC_NAME_MARKUP>
1<I>H</I>-1,2,4-triazol-5-amine

> <PUBCHEM_IUPAC_NAME>
1H-1,2,4-triazol-5-amine

> <PUBCHEM_IUPAC_SYSTEMATIC_NAME>
1H-1,2,4-triazol-5-amine

> <PUBCHEM_IUPAC_TRADITIONAL_NAME>
1H-1,2,4-triazol-5-ylamine

> <PUBCHEM_IUPAC_INCHI>
InChI=1S/C2H4N4/c3-2-4-1-5-6-2/h1H,(H3,3,4,5,6)

> <PUBCHEM_IUPAC_INCHIKEY>
KLSJWNVTNUYHDU-UHFFFAOYSA-N

> <PUBCHEM_XLOGP3_AA>
-0.4

> <PUBCHEM_EXACT_MASS>
84.043596

> <PUBCHEM_MOLECULAR_FORMULA>
C2H4N4

> <PUBCHEM_MOLECULAR_WEIGHT>
84.08

> <PUBCHEM_OPENEYE_CAN_SMILES>
C1=NNC(=N1)N

> <PUBCHEM_OPENEYE_ISO_SMILES>
C1=NNC(=N1)N

> <PUBCHEM_CACTVS_TPSA>
67.6

> <PUBCHEM_MONOISOTOPIC_WEIGHT>
84.043596

> <PUBCHEM_TOTAL_CHARGE>
0

> <PUBCHEM_HEAVY_ATOM_COUNT>
6

> <PUBCHEM_ATOM_DEF_STEREO_COUNT>
0

> <PUBCHEM_ATOM_UDEF_STEREO_COUNT>
0

> <PUBCHEM_BOND_DEF_STEREO_COUNT>
0

> <PUBCHEM_BOND_UDEF_STEREO_COUNT>
0

> <PUBCHEM_ISOTOPIC_ATOM_COUNT>
0

> <PUBCHEM_COMPONENT_COUNT>
1

> <PUBCHEM_CACTVS_TAUTO_COUNT>
-1

> <PUBCHEM_COORDINATE_TYPE>
1
5
255

> <PUBCHEM_BONDANNOTATIONS>
1  3  8
1  5  8
2  5  8
2  6  8
3  6  8

$$$$
1486
  -OEChem-04052116402D

 19 19  0     0  0  0  0  0  0999 V2000
    2.0000   -0.3100    0.0000 Cl  0  0  0  0  0  0  0  0  0  0  0  0
    3.7320   -3.3100    0.0000 Cl  0  0  0  0  0  0  0  0  0  0  0  0
    3.7320    0.6900    0.0000 O   0  0  0  0  0  0  0  0  0  0  0  0
    5.4641    2.6900    0.0000 O   0  0  0  0  0  0  0  0  0  0  0  0
    3.7320    2.6900    0.0000 O   0  0  0  0  0  0  0  0  0  0  0  0
    3.7320   -0.3100    0.0000 C   0  0  0  0  0  0  0  0  0  0  0  0
    2.8660   -0.8100    0.0000 C   0  0  0  0  0  0  0  0  0  0  0  0
    4.5981   -0.8100    0.0000 C   0  0  0  0  0  0  0  0  0  0  0  0
    2.8660   -1.8100    0.0000 C   0  0  0  0  0  0  0  0  0  0  0  0
    4.5981   -1.8100    0.0000 C   0  0  0  0  0  0  0  0  0  0  0  0
    4.5981    1.1900    0.0000 C   0  0  0  0  0  0  0  0  0  0  0  0
    3.7320   -2.3100    0.0000 C   0  0  0  0  0  0  0  0  0  0  0  0
    4.5981    2.1900    0.0000 C   0  0  0  0  0  0  0  0  0  0  0  0
    5.1350   -0.5000    0.0000 H   0  0  0  0  0  0  0  0  0  0  0  0
    4.8101    0.6074    0.0000 H   0  0  0  0  0  0  0  0  0  0  0  0
    5.2087    1.2977    0.0000 H   0  0  0  0  0  0  0  0  0  0  0  0
    2.3291   -2.1200    0.0000 H   0  0  0  0  0  0  0  0  0  0  0  0
    5.1350   -2.1200    0.0000 H   0  0  0  0  0  0  0  0  0  0  0  0
    5.4641    3.3100    0.0000 H   0  0  0  0  0  0  0  0  0  0  0  0
  1  7  1  0  0  0  0
  2 12  1  0  0  0  0
  3  6  1  0  0  0  0
  3 11  1  0  0  0  0
  4 13  1  0  0  0  0
  4 19  1  0  0  0  0
  5 13  2  0  0  0  0
  6  7  2  0  0  0  0
  6  8  1  0  0  0  0
  7  9  1  0  0  0  0
  8 10  2  0  0  0  0
  8 14  1  0  0  0  0
  9 12  2  0  0  0  0
  9 17  1  0  0  0  0
 10 12  1  0  0  0  0
 10 18  1  0  0  0  0
 11 13  1  0  0  0  0
 11 15  1  0  0  0  0
 11 16  1  0  0  0  0
M  END
> <PUBCHEM_COMPOUND_CID>
1486

> <PUBCHEM_COMPOUND_CANONICALIZED>
1

> <PUBCHEM_CACTVS_COMPLEXITY>
186

> <PUBCHEM_CACTVS_HBOND_ACCEPTOR>
3

> <PUBCHEM_CACTVS_HBOND_DONOR>
1

> <PUBCHEM_CACTVS_ROTATABLE_BOND>
3

> <PUBCHEM_CACTVS_SUBSKEYS>
AAADcYBwMAAGAAAAAAAAAAAAAAAAAAAAAAAwAAAAAAAAAAABAAAAGgIACAAACAagkCIwDoAABgCIACDSCAICCAAgJUAIiABGC4gNJiOFMx6COCCkwBELqAeAQAAAACAAAACACAAAQAAAAQAQAAAAAAAAAA==

> <PUBCHEM_IUPAC_OPENEYE_NAME>
2-(2,4-dichlorophenoxy)acetic acid

> <PUBCHEM_IUPAC_CAS_NAME>
2-(2,4-dichlorophenoxy)acetic acid

> <PUBCHEM_IUPAC_NAME_MARKUP>
2-(2,4-dichlorophenoxy)acetic acid

> <PUBCHEM_IUPAC_NAME>
2-(2,4-dichlorophenoxy)acetic acid

> <PUBCHEM_IUPAC_SYSTEMATIC_NAME>
2-[2,4-bis(chloranyl)phenoxy]ethanoic acid

> <PUBCHEM_IUPAC_TRADITIONAL_NAME>
2-(2,4-dichlorophenoxy)acetic acid

> <PUBCHEM_IUPAC_INCHI>
InChI=1S/C8H6Cl2O3/c9-5-1-2-7(6(10)3-5)13-4-8(11)12/h1-3H,4H2,(H,11,12)

> <PUBCHEM_IUPAC_INCHIKEY>
OVSKIKFHRZPJSS-UHFFFAOYSA-N

> <PUBCHEM_XLOGP3>
2.8

> <PUBCHEM_EXACT_MASS>
219.969399

> <PUBCHEM_MOLECULAR_FORMULA>
C8H6Cl2O3

> <PUBCHEM_MOLECULAR_WEIGHT>
221.03

> <PUBCHEM_OPENEYE_CAN_SMILES>
C1=CC(=C(C=C1Cl)Cl)OCC(=O)O

> <PUBCHEM_OPENEYE_ISO_SMILES>
C1=CC(=C(C=C1Cl)Cl)OCC(=O)O

> <PUBCHEM_CACTVS_TPSA>
46.5

> <PUBCHEM_MONOISOTOPIC_WEIGHT>
219.969399

> <PUBCHEM_TOTAL_CHARGE>
0

> <PUBCHEM_HEAVY_ATOM_COUNT>
13

> <PUBCHEM_ATOM_DEF_STEREO_COUNT>
0

> <PUBCHEM_ATOM_UDEF_STEREO_COUNT>
0

> <PUBCHEM_BOND_DEF_STEREO_COUNT>
0

> <PUBCHEM_BOND_UDEF_STEREO_COUNT>
0

> <PUBCHEM_ISOTOPIC_ATOM_COUNT>
0

> <PUBCHEM_COMPONENT_COUNT>
1

> <PUBCHEM_CACTVS_TAUTO_COUNT>
-1

> <PUBCHEM_COORDINATE_TYPE>
1
5
255

> <PUBCHEM_BONDANNOTATIONS>
10  12  8
6  7  8
6  8  8
7  9  8
8  10  8
9  12  8

$$$$
1480
  -OEChem-04052116402D

 19 19  0     0  0  0  0  0  0999 V2000
    2.0000   -0.3100    0.0000 Cl  0  0  0  0  0  0  0  0  0  0  0  0
    5.4641   -2.3100    0.0000 Cl  0  0  0  0  0  0  0  0  0  0  0  0
    3.7320   -3.3100    0.0000 Cl  0  0  0  0  0  0  0  0  0  0  0  0
    3.7320    0.6900    0.0000 O   0  0  0  0  0  0  0  0  0  0  0  0
    5.4641    2.6900    0.0000 O   0  0  0  0  0  0  0  0  0  0  0  0
    3.7320    2.6900    0.0000 O   0  0  0  0  0  0  0  0  0  0  0  0
    3.7320   -0.3100    0.0000 C   0  0  0  0  0  0  0  0  0  0  0  0
    2.8660   -0.8100    0.0000 C   0  0  0  0  0  0  0  0  0  0  0  0
    4.5981   -0.8100    0.0000 C   0  0  0  0  0  0  0  0  0  0  0  0
    4.5981   -1.8100    0.0000 C   0  0  0  0  0  0  0  0  0  0  0  0
    2.8660   -1.8100    0.0000 C   0  0  0  0  0  0  0  0  0  0  0  0
    3.7320   -2.3100    0.0000 C   0  0  0  0  0  0  0  0  0  0  0  0
    4.5981    1.1900    0.0000 C   0  0  0  0  0  0  0  0  0  0  0  0
    4.5981    2.1900    0.0000 C   0  0  0  0  0  0  0  0  0  0  0  0
    5.1350   -0.5000    0.0000 H   0  0  0  0  0  0  0  0  0  0  0  0
    2.3291   -2.1200    0.0000 H   0  0  0  0  0  0  0  0  0  0  0  0
    4.8101    0.6074    0.0000 H   0  0  0  0  0  0  0  0  0  0  0  0
    5.2087    1.2977    0.0000 H   0  0  0  0  0  0  0  0  0  0  0  0
    5.4641    3.3100    0.0000 H   0  0  0  0  0  0  0  0  0  0  0  0
  1  8  1  0  0  0  0
  2 10  1  0  0  0  0
  3 12  1  0  0  0  0
  4  7  1  0  0  0  0
  4 13  1  0  0  0  0
  5 14  1  0  0  0  0
  5 19  1  0  0  0  0
  6 14  2  0  0  0  0
  7  8  1  0  0  0  0
  7  9  2  0  0  0  0
  8 11  2  0  0  0  0
  9 10  1  0  0  0  0
  9 15  1  0  0  0  0
 10 12  2  0  0  0  0
 11 12  1  0  0  0  0
 11 16  1  0  0  0  0
 13 14  1  0  0  0  0
 13 17  1  0  0  0  0
 13 18  1  0  0  0  0
M  END
> <PUBCHEM_COMPOUND_CID>
1480

> <PUBCHEM_COMPOUND_CANONICALIZED>
1

> <PUBCHEM_CACTVS_COMPLEXITY>
212

> <PUBCHEM_CACTVS_HBOND_ACCEPTOR>
3

> <PUBCHEM_CACTVS_HBOND_DONOR>
1

> <PUBCHEM_CACTVS_ROTATABLE_BOND>
3

> <PUBCHEM_CACTVS_SUBSKEYS>
AAADcYBwMAAGAAAAAAAAAAAAAAAAAAAAAAAwAAAAAAAAAAABAAAAGgIACAAACAagkCIwDoAABgCIACDSCAICCAAgJUAAikBGC4gNJiOFMh6COCCkwBELqAeAQAAAACAQAQCACAQAQCACAQAQCAAAAAAAAA==

> <PUBCHEM_IUPAC_OPENEYE_NAME>
2-(2,4,5-trichlorophenoxy)acetic acid

> <PUBCHEM_IUPAC_CAS_NAME>
2-(2,4,5-trichlorophenoxy)acetic acid

> <PUBCHEM_IUPAC_NAME_MARKUP>
2-(2,4,5-trichlorophenoxy)acetic acid

> <PUBCHEM_IUPAC_NAME>
2-(2,4,5-trichlorophenoxy)acetic acid

> <PUBCHEM_IUPAC_SYSTEMATIC_NAME>
2-[2,4,5-tris(chloranyl)phenoxy]ethanoic acid

> <PUBCHEM_IUPAC_TRADITIONAL_NAME>
2-(2,4,5-trichlorophenoxy)acetic acid

> <PUBCHEM_IUPAC_INCHI>
InChI=1S/C8H5Cl3O3/c9-4-1-6(11)7(2-5(4)10)14-3-8(12)13/h1-2H,3H2,(H,12,13)

> <PUBCHEM_IUPAC_INCHIKEY>
SMYMJHWAQXWPDB-UHFFFAOYSA-N

> <PUBCHEM_XLOGP3>
3.3

> <PUBCHEM_EXACT_MASS>
253.930427

> <PUBCHEM_MOLECULAR_FORMULA>
C8H5Cl3O3

> <PUBCHEM_MOLECULAR_WEIGHT>
255.5

> <PUBCHEM_OPENEYE_CAN_SMILES>
C1=C(C(=CC(=C1Cl)Cl)Cl)OCC(=O)O

> <PUBCHEM_OPENEYE_ISO_SMILES>
C1=C(C(=CC(=C1Cl)Cl)Cl)OCC(=O)O

> <PUBCHEM_CACTVS_TPSA>
46.5

> <PUBCHEM_MONOISOTOPIC_WEIGHT>
253.930427

> <PUBCHEM_TOTAL_CHARGE>
0

> <PUBCHEM_HEAVY_ATOM_COUNT>
14

> <PUBCHEM_ATOM_DEF_STEREO_COUNT>
0

> <PUBCHEM_ATOM_UDEF_STEREO_COUNT>
0

> <PUBCHEM_BOND_DEF_STEREO_COUNT>
0

> <PUBCHEM_BOND_UDEF_STEREO_COUNT>
0

> <PUBCHEM_ISOTOPIC_ATOM_COUNT>
0

> <PUBCHEM_COMPONENT_COUNT>
1

> <PUBCHEM_CACTVS_TAUTO_COUNT>
-1

> <PUBCHEM_COORDINATE_TYPE>
1
5
255

> <PUBCHEM_BONDANNOTATIONS>
10  12  8
11  12  8
7  8  8
7  9  8
8  11  8
9  10  8

$$$$
999
  -OEChem-04052116402D

 18 18  0     0  0  0  0  0  0999 V2000
    3.7320    2.0950    0.0000 O   0  0  0  0  0  0  0  0  0  0  0  0
    4.5981    0.5950    0.0000 O   0  0  0  0  0  0  0  0  0  0  0  0
    2.8660   -0.4050    0.0000 C   0  0  0  0  0  0  0  0  0  0  0  0
    2.8660    0.5950    0.0000 C   0  0  0  0  0  0  0  0  0  0  0  0
    2.0000   -0.9050    0.0000 C   0  0  0  0  0  0  0  0  0  0  0  0
    3.7320   -0.9050    0.0000 C   0  0  0  0  0  0  0  0  0  0  0  0
    2.0000   -1.9050    0.0000 C   0  0  0  0  0  0  0  0  0  0  0  0
    3.7320   -1.9050    0.0000 C   0  0  0  0  0  0  0  0  0  0  0  0
    2.8660   -2.4050    0.0000 C   0  0  0  0  0  0  0  0  0  0  0  0
    3.7320    1.0950    0.0000 C   0  0  0  0  0  0  0  0  0  0  0  0
    2.6540    1.1776    0.0000 H   0  0  0  0  0  0  0  0  0  0  0  0
    2.2554    0.4873    0.0000 H   0  0  0  0  0  0  0  0  0  0  0  0
    1.4631   -0.5950    0.0000 H   0  0  0  0  0  0  0  0  0  0  0  0
    4.2690   -0.5950    0.0000 H   0  0  0  0  0  0  0  0  0  0  0  0
    1.4631   -2.2150    0.0000 H   0  0  0  0  0  0  0  0  0  0  0  0
    4.2690   -2.2150    0.0000 H   0  0  0  0  0  0  0  0  0  0  0  0
    2.8660   -3.0250    0.0000 H   0  0  0  0  0  0  0  0  0  0  0  0
    4.2690    2.4050    0.0000 H   0  0  0  0  0  0  0  0  0  0  0  0
  1 10  1  0  0  0  0
  1 18  1  0  0  0  0
  2 10  2  0  0  0  0
  3  4  1  0  0  0  0
  3  5  2  0  0  0  0
  3  6  1  0  0  0  0
  4 10  1  0  0  0  0
  4 11  1  0  0  0  0
  4 12  1  0  0  0  0
  5  7  1  0  0  0  0
  5 13  1  0  0  0  0
  6  8  2  0  0  0  0
  6 14  1  0  0  0  0
  7  9  2  0  0  0  0
  7 15  1  0  0  0  0
  8  9  1  0  0  0  0
  8 16  1  0  0  0  0
  9 17  1  0  0  0  0
M  END
> <PUBCHEM_COMPOUND_CID>
999

> <PUBCHEM_COMPOUND_CANONICALIZED>
1

> <PUBCHEM_CACTVS_COMPLEXITY>
114

> <PUBCHEM_CACTVS_HBOND_ACCEPTOR>
2

> <PUBCHEM_CACTVS_HBOND_DONOR>
1

> <PUBCHEM_CACTVS_ROTATABLE_BOND>
2

> <PUBCHEM_CACTVS_SUBSKEYS>
AAADccBwMAAAAAAAAAAAAAAAAAAAAAAAAAAwAAAAAAAAAAABAAAAGgAACAAADACAmAAwCIAAAgCIAiDSCAACAAAgAAAIiAEAAIgIIDKAFRCAYAAkwAEIiAeIyKCOAAAAAAAAAAAAAAAAAAAAAAAAAAAAAA==

> <PUBCHEM_IUPAC_OPENEYE_NAME>
2-phenylacetic acid

> <PUBCHEM_IUPAC_CAS_NAME>
2-phenylacetic acid

> <PUBCHEM_IUPAC_NAME_MARKUP>
2-phenylacetic acid

> <PUBCHEM_IUPAC_NAME>
2-phenylacetic acid

> <PUBCHEM_IUPAC_SYSTEMATIC_NAME>
2-phenylethanoic acid

> <PUBCHEM_IUPAC_TRADITIONAL_NAME>
2-phenylacetic acid

> <PUBCHEM_IUPAC_INCHI>
InChI=1S/C8H8O2/c9-8(10)6-7-4-2-1-3-5-7/h1-5H,6H2,(H,9,10)

> <PUBCHEM_IUPAC_INCHIKEY>
WLJVXDMOQOGPHL-UHFFFAOYSA-N

> <PUBCHEM_XLOGP3>
1.4

> <PUBCHEM_EXACT_MASS>
136.052429

> <PUBCHEM_MOLECULAR_FORMULA>
C8H8O2

> <PUBCHEM_MOLECULAR_WEIGHT>
136.15

> <PUBCHEM_OPENEYE_CAN_SMILES>
C1=CC=C(C=C1)CC(=O)O

> <PUBCHEM_OPENEYE_ISO_SMILES>
C1=CC=C(C=C1)CC(=O)O

> <PUBCHEM_CACTVS_TPSA>
37.3

> <PUBCHEM_MONOISOTOPIC_WEIGHT>
136.052429

> <PUBCHEM_TOTAL_CHARGE>
0

> <PUBCHEM_HEAVY_ATOM_COUNT>
10

> <PUBCHEM_ATOM_DEF_STEREO_COUNT>
0

> <PUBCHEM_ATOM_UDEF_STEREO_COUNT>
0

> <PUBCHEM_BOND_DEF_STEREO_COUNT>
0

> <PUBCHEM_BOND_UDEF_STEREO_COUNT>
0

> <PUBCHEM_ISOTOPIC_ATOM_COUNT>
0

> <PUBCHEM_COMPONENT_COUNT>
1

> <PUBCHEM_CACTVS_TAUTO_COUNT>
-1

> <PUBCHEM_COORDINATE_TYPE>
1
5
255

> <PUBCHEM_BONDANNOTATIONS>
3  5  8
3  6  8
5  7  8
6  8  8
7  9  8
8  9  8

$$$$
938
  -OEChem-04052116402D

 14 14  0     0  0  0  0  0  0999 V2000
    3.7320    1.4400    0.0000 O   0  0  0  0  0  0  0  0  0  0  0  0
    2.0000    1.4400    0.0000 O   0  0  0  0  0  0  0  0  0  0  0  0
    3.7320   -1.5600    0.0000 N   0  0  0  0  0  0  0  0  0  0  0  0
    2.8660   -0.0600    0.0000 C   0  0  0  0  0  0  0  0  0  0  0  0
    2.0000   -0.5600    0.0000 C   0  0  0  0  0  0  0  0  0  0  0  0
    3.7320   -0.5600    0.0000 C   0  0  0  0  0  0  0  0  0  0  0  0
    2.0000   -1.5600    0.0000 C   0  0  0  0  0  0  0  0  0  0  0  0
    2.8660   -2.0600    0.0000 C   0  0  0  0  0  0  0  0  0  0  0  0
    2.8660    0.9400    0.0000 C   0  0  0  0  0  0  0  0  0  0  0  0
    1.4631   -0.2500    0.0000 H   0  0  0  0  0  0  0  0  0  0  0  0
    4.2690   -0.2500    0.0000 H   0  0  0  0  0  0  0  0  0  0  0  0
    1.4631   -1.8700    0.0000 H   0  0  0  0  0  0  0  0  0  0  0  0
    2.8660   -2.6800    0.0000 H   0  0  0  0  0  0  0  0  0  0  0  0
    3.7320    2.0600    0.0000 H   0  0  0  0  0  0  0  0  0  0  0  0
  1  9  1  0  0  0  0
  1 14  1  0  0  0  0
  2  9  2  0  0  0  0
  3  6  1  0  0  0  0
  3  8  2  0  0  0  0
  4  5  1  0  0  0  0
  4  6  2  0  0  0  0
  4  9  1  0  0  0  0
  5  7  2  0  0  0  0
  5 10  1  0  0  0  0
  6 11  1  0  0  0  0
  7  8  1  0  0  0  0
  7 12  1  0  0  0  0
  8 13  1  0  0  0  0
M  END
> <PUBCHEM_COMPOUND_CID>
938

> <PUBCHEM_COMPOUND_CANONICALIZED>
1

> <PUBCHEM_CACTVS_COMPLEXITY>
114

> <PUBCHEM_CACTVS_HBOND_ACCEPTOR>
3

> <PUBCHEM_CACTVS_HBOND_DONOR>
1

> <PUBCHEM_CACTVS_ROTATABLE_BOND>
1

> <PUBCHEM_CACTVS_SUBSKEYS>
AAADcYBiMAAAAAAAAAAAAAAAAAAAAAAAAAAsAAAAAAAAAAABgAAAHgAACAAADADBmgQ8iJIIEgCoAjD3TACCgCA1AiAI2CE4bNgIJvrAlZGEcYhmwAHI2caYEQIMAAAAAAAAAAAAAAAAAAAAAAAAAAAAAA==

> <PUBCHEM_IUPAC_OPENEYE_NAME>
nicotinic acid

> <PUBCHEM_IUPAC_CAS_NAME>
3-pyridinecarboxylic acid

> <PUBCHEM_IUPAC_NAME_MARKUP>
pyridine-3-carboxylic acid

> <PUBCHEM_IUPAC_NAME>
pyridine-3-carboxylic acid

> <PUBCHEM_IUPAC_SYSTEMATIC_NAME>
pyridine-3-carboxylic acid

> <PUBCHEM_IUPAC_TRADITIONAL_NAME>
nicotinic acid

> <PUBCHEM_IUPAC_INCHI>
InChI=1S/C6H5NO2/c8-6(9)5-2-1-3-7-4-5/h1-4H,(H,8,9)

> <PUBCHEM_IUPAC_INCHIKEY>
PVNIIMVLHYAWGP-UHFFFAOYSA-N

> <PUBCHEM_XLOGP3>
0.4

> <PUBCHEM_EXACT_MASS>
123.032028

> <PUBCHEM_MOLECULAR_FORMULA>
C6H5NO2

> <PUBCHEM_MOLECULAR_WEIGHT>
123.11

> <PUBCHEM_OPENEYE_CAN_SMILES>
C1=CC(=CN=C1)C(=O)O

> <PUBCHEM_OPENEYE_ISO_SMILES>
C1=CC(=CN=C1)C(=O)O

> <PUBCHEM_CACTVS_TPSA>
50.2

> <PUBCHEM_MONOISOTOPIC_WEIGHT>
123.032028

> <PUBCHEM_TOTAL_CHARGE>
0

> <PUBCHEM_HEAVY_ATOM_COUNT>
9

> <PUBCHEM_ATOM_DEF_STEREO_COUNT>
0

> <PUBCHEM_ATOM_UDEF_STEREO_COUNT>
0

> <PUBCHEM_BOND_DEF_STEREO_COUNT>
0

> <PUBCHEM_BOND_UDEF_STEREO_COUNT>
0

> <PUBCHEM_ISOTOPIC_ATOM_COUNT>
0

> <PUBCHEM_COMPONENT_COUNT>
1

> <PUBCHEM_CACTVS_TAUTO_COUNT>
-1

> <PUBCHEM_COORDINATE_TYPE>
1
5
255

> <PUBCHEM_BONDANNOTATIONS>
3  6  8
3  8  8
4  5  8
4  6  8
5  7  8
7  8  8

$$$$
892
  -OEChem-04052116402D

 24 24  0     0  0  0  0  0  0999 V2000
    6.0010    1.0000    0.0000 O   0  0  0  0  0  0  0  0  0  0  0  0
    6.0010   -1.0000    0.0000 O   0  0  0  0  0  0  0  0  0  0  0  0
    4.2690    2.0000    0.0000 O   0  0  0  0  0  0  0  0  0  0  0  0
    4.2690   -2.0000    0.0000 O   0  0  0  0  0  0  0  0  0  0  0  0
    2.5369    1.0000    0.0000 O   0  0  0  0  0  0  0  0  0  0  0  0
    2.5369   -1.0000    0.0000 O   0  0  0  0  0  0  0  0  0  0  0  0
    5.1350    0.5000    0.0000 C   0  0  0  0  0  0  0  0  0  0  0  0
    5.1350   -0.5000    0.0000 C   0  0  0  0  0  0  0  0  0  0  0  0
    4.2690    1.0000    0.0000 C   0  0  0  0  0  0  0  0  0  0  0  0
    4.2690   -1.0000    0.0000 C   0  0  0  0  0  0  0  0  0  0  0  0
    3.4030    0.5000    0.0000 C   0  0  0  0  0  0  0  0  0  0  0  0
    3.4030   -0.5000    0.0000 C   0  0  0  0  0  0  0  0  0  0  0  0
    5.6720    0.1900    0.0000 H   0  0  0  0  0  0  0  0  0  0  0  0
    5.1350   -1.1200    0.0000 H   0  0  0  0  0  0  0  0  0  0  0  0
    4.8059    1.3100    0.0000 H   0  0  0  0  0  0  0  0  0  0  0  0
    3.7320   -1.3100    0.0000 H   0  0  0  0  0  0  0  0  0  0  0  0
    3.4030    1.1200    0.0000 H   0  0  0  0  0  0  0  0  0  0  0  0
    3.4030   -1.1200    0.0000 H   0  0  0  0  0  0  0  0  0  0  0  0
    6.5380    0.6900    0.0000 H   0  0  0  0  0  0  0  0  0  0  0  0
    6.0010   -1.6200    0.0000 H   0  0  0  0  0  0  0  0  0  0  0  0
    4.8059    2.3100    0.0000 H   0  0  0  0  0  0  0  0  0  0  0  0
    3.7320   -2.3100    0.0000 H   0  0  0  0  0  0  0  0  0  0  0  0
    2.5369    1.6200    0.0000 H   0  0  0  0  0  0  0  0  0  0  0  0
    2.0000   -0.6900    0.0000 H   0  0  0  0  0  0  0  0  0  0  0  0
  1  7  1  0  0  0  0
  1 19  1  0  0  0  0
  2  8  1  0  0  0  0
  2 20  1  0  0  0  0
  3  9  1  0  0  0  0
  3 21  1  0  0  0  0
  4 10  1  0  0  0  0
  4 22  1  0  0  0  0
  5 11  1  0  0  0  0
  5 23  1  0  0  0  0
  6 12  1  0  0  0  0
  6 24  1  0  0  0  0
  7  8  1  0  0  0  0
  7  9  1  0  0  0  0
  7 13  1  0  0  0  0
  8 10  1  0  0  0  0
  8 14  1  0  0  0  0
  9 11  1  0  0  0  0
  9 15  1  0  0  0  0
 10 12  1  0  0  0  0
 10 16  1  0  0  0  0
 11 12  1  0  0  0  0
 11 17  1  0  0  0  0
 12 18  1  0  0  0  0
M  END
> <PUBCHEM_COMPOUND_CID>
892

> <PUBCHEM_COMPOUND_CANONICALIZED>
1

> <PUBCHEM_CACTVS_COMPLEXITY>
104

> <PUBCHEM_CACTVS_HBOND_ACCEPTOR>
6

> <PUBCHEM_CACTVS_HBOND_DONOR>
6

> <PUBCHEM_CACTVS_ROTATABLE_BOND>
0

> <PUBCHEM_CACTVS_SUBSKEYS>
AAADccBgOAAAAAAAAAAAAAAAAAAAAAAAAAAwAAAAAAAAAAAAAAAAGgAACAAACBSggAIAAAAAAgAAAAAAAAAAAAAAAAAAAAAAAAABEAIAAAAAQAAFAAABAAHAYAQAAAAAAAAAAAACAAAQAACAAAAAAAAAAA==

> <PUBCHEM_IUPAC_OPENEYE_NAME>
cyclohexane-1,2,3,4,5,6-hexol

> <PUBCHEM_IUPAC_CAS_NAME>
cyclohexane-1,2,3,4,5,6-hexol

> <PUBCHEM_IUPAC_NAME_MARKUP>
cyclohexane-1,2,3,4,5,6-hexol

> <PUBCHEM_IUPAC_NAME>
cyclohexane-1,2,3,4,5,6-hexol

> <PUBCHEM_IUPAC_SYSTEMATIC_NAME>
cyclohexane-1,2,3,4,5,6-hexol

> <PUBCHEM_IUPAC_TRADITIONAL_NAME>
cyclohexane-1,2,3,4,5,6-hexol

> <PUBCHEM_IUPAC_INCHI>
InChI=1S/C6H12O6/c7-1-2(8)4(10)6(12)5(11)3(1)9/h1-12H

> <PUBCHEM_IUPAC_INCHIKEY>
CDAISMWEOUEBRE-UHFFFAOYSA-N

> <PUBCHEM_XLOGP3_AA>
-3.7

> <PUBCHEM_EXACT_MASS>
180.063388

> <PUBCHEM_MOLECULAR_FORMULA>
C6H12O6

> <PUBCHEM_MOLECULAR_WEIGHT>
180.16

> <PUBCHEM_OPENEYE_CAN_SMILES>
C1(C(C(C(C(C1O)O)O)O)O)O

> <PUBCHEM_OPENEYE_ISO_SMILES>
C1(C(C(C(C(C1O)O)O)O)O)O

> <PUBCHEM_CACTVS_TPSA>
121

> <PUBCHEM_MONOISOTOPIC_WEIGHT>
180.063388

> <PUBCHEM_TOTAL_CHARGE>
0

> <PUBCHEM_HEAVY_ATOM_COUNT>
12

> <PUBCHEM_ATOM_DEF_STEREO_COUNT>
0

> <PUBCHEM_ATOM_UDEF_STEREO_COUNT>
0

> <PUBCHEM_BOND_DEF_STEREO_COUNT>
0

> <PUBCHEM_BOND_UDEF_STEREO_COUNT>
0

> <PUBCHEM_ISOTOPIC_ATOM_COUNT>
0

> <PUBCHEM_COMPONENT_COUNT>
1

> <PUBCHEM_CACTVS_TAUTO_COUNT>
-1

> <PUBCHEM_COORDINATE_TYPE>
1
5
255

$$$$
802
  -OEChem-04052116402D

 22 23  0     0  0  0  0  0  0999 V2000
    6.2781    2.0891    0.0000 O   0  0  0  0  0  0  0  0  0  0  0  0
    6.6353    0.3943    0.0000 O   0  0  0  0  0  0  0  0  0  0  0  0
    4.6783   -1.6276    0.0000 N   0  0  0  0  0  0  0  0  0  0  0  0
    3.7320   -0.3229    0.0000 C   0  0  0  0  0  0  0  0  0  0  0  0
    4.6783   -0.0182    0.0000 C   0  0  0  0  0  0  0  0  0  0  0  0
    3.7320   -1.3229    0.0000 C   0  0  0  0  0  0  0  0  0  0  0  0
    5.2619   -0.8229    0.0000 C   0  0  0  0  0  0  0  0  0  0  0  0
    4.9889    0.9324    0.0000 C   0  0  0  0  0  0  0  0  0  0  0  0
    2.8660    0.1771    0.0000 C   0  0  0  0  0  0  0  0  0  0  0  0
    2.8660   -1.8229    0.0000 C   0  0  0  0  0  0  0  0  0  0  0  0
    2.0000   -0.3229    0.0000 C   0  0  0  0  0  0  0  0  0  0  0  0
    2.0000   -1.3229    0.0000 C   0  0  0  0  0  0  0  0  0  0  0  0
    5.9674    1.1386    0.0000 C   0  0  0  0  0  0  0  0  0  0  0  0
    4.9684    1.5520    0.0000 H   0  0  0  0  0  0  0  0  0  0  0  0
    4.3751    1.0197    0.0000 H   0  0  0  0  0  0  0  0  0  0  0  0
    5.8819   -0.8229    0.0000 H   0  0  0  0  0  0  0  0  0  0  0  0
    4.8709   -2.2170    0.0000 H   0  0  0  0  0  0  0  0  0  0  0  0
    2.8660    0.7971    0.0000 H   0  0  0  0  0  0  0  0  0  0  0  0
    2.8660   -2.4429    0.0000 H   0  0  0  0  0  0  0  0  0  0  0  0
    1.4631   -0.0129    0.0000 H   0  0  0  0  0  0  0  0  0  0  0  0
    1.4631   -1.6329    0.0000 H   0  0  0  0  0  0  0  0  0  0  0  0
    6.8848    2.2170    0.0000 H   0  0  0  0  0  0  0  0  0  0  0  0
  1 13  1  0  0  0  0
  1 22  1  0  0  0  0
  2 13  2  0  0  0  0
  3  6  1  0  0  0  0
  3  7  1  0  0  0  0
  3 17  1  0  0  0  0
  4  5  1  0  0  0  0
  4  6  1  0  0  0  0
  4  9  2  0  0  0  0
  5  7  2  0  0  0  0
  5  8  1  0  0  0  0
  6 10  2  0  0  0  0
  7 16  1  0  0  0  0
  8 13  1  0  0  0  0
  8 14  1  0  0  0  0
  8 15  1  0  0  0  0
  9 11  1  0  0  0  0
  9 18  1  0  0  0  0
 10 12  1  0  0  0  0
 10 19  1  0  0  0  0
 11 12  2  0  0  0  0
 11 20  1  0  0  0  0
 12 21  1  0  0  0  0
M  END
> <PUBCHEM_COMPOUND_CID>
802

> <PUBCHEM_COMPOUND_CANONICALIZED>
1

> <PUBCHEM_CACTVS_COMPLEXITY>
205

> <PUBCHEM_CACTVS_HBOND_ACCEPTOR>
2

> <PUBCHEM_CACTVS_HBOND_DONOR>
2

> <PUBCHEM_CACTVS_ROTATABLE_BOND>
2

> <PUBCHEM_CACTVS_SUBSKEYS>
AAADccByMAAAAAAAAAAAAAAAAAAAAWAAAAAwAAAAAAAAAFgB8AAAHgAQCAAADAjBngQ8yPLJkgCoAzT3TACCgCAxAiAI2aE4ZJgIIPLAlZGEYAhk0AHIyAe82eOegAAAAAACAAAAAAAAAAQAAAAAAAAAAA==

> <PUBCHEM_IUPAC_OPENEYE_NAME>
2-(1H-indol-3-yl)acetic acid

> <PUBCHEM_IUPAC_CAS_NAME>
2-(1H-indol-3-yl)acetic acid

> <PUBCHEM_IUPAC_NAME_MARKUP>
2-(1<I>H</I>-indol-3-yl)acetic acid

> <PUBCHEM_IUPAC_NAME>
2-(1H-indol-3-yl)acetic acid

> <PUBCHEM_IUPAC_SYSTEMATIC_NAME>
2-(1H-indol-3-yl)ethanoic acid

> <PUBCHEM_IUPAC_TRADITIONAL_NAME>
2-(1H-indol-3-yl)acetic acid

> <PUBCHEM_IUPAC_INCHI>
InChI=1S/C10H9NO2/c12-10(13)5-7-6-11-9-4-2-1-3-8(7)9/h1-4,6,11H,5H2,(H,12,13)

> <PUBCHEM_IUPAC_INCHIKEY>
SEOVTRFCIGRIMH-UHFFFAOYSA-N

> <PUBCHEM_XLOGP3>
1.4

> <PUBCHEM_EXACT_MASS>
175.063329

> <PUBCHEM_MOLECULAR_FORMULA>
C10H9NO2

> <PUBCHEM_MOLECULAR_WEIGHT>
175.18

> <PUBCHEM_OPENEYE_CAN_SMILES>
C1=CC=C2C(=C1)C(=CN2)CC(=O)O

> <PUBCHEM_OPENEYE_ISO_SMILES>
C1=CC=C2C(=C1)C(=CN2)CC(=O)O

> <PUBCHEM_CACTVS_TPSA>
53.1

> <PUBCHEM_MONOISOTOPIC_WEIGHT>
175.063329

> <PUBCHEM_TOTAL_CHARGE>
0

> <PUBCHEM_HEAVY_ATOM_COUNT>
13

> <PUBCHEM_ATOM_DEF_STEREO_COUNT>
0

> <PUBCHEM_ATOM_UDEF_STEREO_COUNT>
0

> <PUBCHEM_BOND_DEF_STEREO_COUNT>
0

> <PUBCHEM_BOND_UDEF_STEREO_COUNT>
0

> <PUBCHEM_ISOTOPIC_ATOM_COUNT>
0

> <PUBCHEM_COMPONENT_COUNT>
1

> <PUBCHEM_CACTVS_TAUTO_COUNT>
-1

> <PUBCHEM_COORDINATE_TYPE>
1
5
255

> <PUBCHEM_BONDANNOTATIONS>
10  12  8
11  12  8
3  6  8
3  7  8
4  5  8
4  6  8
4  9  8
5  7  8
6  10  8
9  11  8

$$$$
679
  -OEChem-04052116402D

 10  9  0     0  0  0  0  0  0999 V2000
    2.8660    0.2500    0.0000 S   0  0  0  0  0  0  0  0  0  0  0  0
    3.7320    0.7500    0.0000 O   0  0  0  0  0  0  0  0  0  0  0  0
    2.0000    0.7500    0.0000 C   0  0  0  0  0  0  0  0  0  0  0  0
    2.8660   -0.7500    0.0000 C   0  0  0  0  0  0  0  0  0  0  0  0
    2.3100    1.2869    0.0000 H   0  0  0  0  0  0  0  0  0  0  0  0
    1.4631    1.0600    0.0000 H   0  0  0  0  0  0  0  0  0  0  0  0
    1.6900    0.2131    0.0000 H   0  0  0  0  0  0  0  0  0  0  0  0
    2.2460   -0.7500    0.0000 H   0  0  0  0  0  0  0  0  0  0  0  0
    2.8660   -1.3700    0.0000 H   0  0  0  0  0  0  0  0  0  0  0  0
    3.4860   -0.7500    0.0000 H   0  0  0  0  0  0  0  0  0  0  0  0
  1  2  2  0  0  0  0
  1  3  1  0  0  0  0
  1  4  1  0  0  0  0
  3  5  1  0  0  0  0
  3  6  1  0  0  0  0
  3  7  1  0  0  0  0
  4  8  1  0  0  0  0
  4  9  1  0  0  0  0
  4 10  1  0  0  0  0
M  END
> <PUBCHEM_COMPOUND_CID>
679

> <PUBCHEM_COMPOUND_CANONICALIZED>
1

> <PUBCHEM_CACTVS_COMPLEXITY>
29

> <PUBCHEM_CACTVS_HBOND_ACCEPTOR>
2

> <PUBCHEM_CACTVS_HBOND_DONOR>
0

> <PUBCHEM_CACTVS_ROTATABLE_BOND>
0

> <PUBCHEM_CACTVS_SUBSKEYS>
AAADcYBAIABAAAAAAAAAAAAAAAAAAAAAAAAAAAAAAAAAAAAAAAAAEAQAAAAAAAAAAACCAAAAAAoAAAAAAEAAAAAAAAAAAAAAAAAAAAAAAAAAAAAAAAAAAAAAAAAAAAAAAAAAAAAAAAAAAAAAAAAAAAAAAA==

> <PUBCHEM_IUPAC_OPENEYE_NAME>
methylsulfinylmethane

> <PUBCHEM_IUPAC_CAS_NAME>
methylsulfinylmethane

> <PUBCHEM_IUPAC_NAME_MARKUP>
methylsulfinylmethane

> <PUBCHEM_IUPAC_NAME>
methylsulfinylmethane

> <PUBCHEM_IUPAC_SYSTEMATIC_NAME>
methylsulfinylmethane

> <PUBCHEM_IUPAC_TRADITIONAL_NAME>
methylsulfinylmethane

> <PUBCHEM_IUPAC_INCHI>
InChI=1S/C2H6OS/c1-4(2)3/h1-2H3

> <PUBCHEM_IUPAC_INCHIKEY>
IAZDPXIOMUYVGZ-UHFFFAOYSA-N

> <PUBCHEM_XLOGP3_AA>
-0.6

> <PUBCHEM_EXACT_MASS>
78.013936

> <PUBCHEM_MOLECULAR_FORMULA>
C2H6OS

> <PUBCHEM_MOLECULAR_WEIGHT>
78.14

> <PUBCHEM_OPENEYE_CAN_SMILES>
CS(=O)C

> <PUBCHEM_OPENEYE_ISO_SMILES>
CS(=O)C

> <PUBCHEM_CACTVS_TPSA>
36.3

> <PUBCHEM_MONOISOTOPIC_WEIGHT>
78.013936

> <PUBCHEM_TOTAL_CHARGE>
0

> <PUBCHEM_HEAVY_ATOM_COUNT>
4

> <PUBCHEM_ATOM_DEF_STEREO_COUNT>
0

> <PUBCHEM_ATOM_UDEF_STEREO_COUNT>
0

> <PUBCHEM_BOND_DEF_STEREO_COUNT>
0

> <PUBCHEM_BOND_UDEF_STEREO_COUNT>
0

> <PUBCHEM_ISOTOPIC_ATOM_COUNT>
0

> <PUBCHEM_COMPONENT_COUNT>
1

> <PUBCHEM_CACTVS_TAUTO_COUNT>
-1

> <PUBCHEM_COORDINATE_TYPE>
1
5
255

$$$$
359
  -OEChem-04052116402D

 15 15  0     0  0  0  0  0  0999 V2000
    3.7320    1.6550    0.0000 O   0  0  0  0  0  0  0  0  0  0  0  0
    2.0000   -1.3450    0.0000 O   0  0  0  0  0  0  0  0  0  0  0  0
    5.4641   -1.3450    0.0000 O   0  0  0  0  0  0  0  0  0  0  0  0
    3.7320    0.6550    0.0000 C   0  0  0  0  0  0  0  0  0  0  0  0
    2.8660   -0.8450    0.0000 C   0  0  0  0  0  0  0  0  0  0  0  0
    4.5981   -0.8450    0.0000 C   0  0  0  0  0  0  0  0  0  0  0  0
    2.8660    0.1550    0.0000 C   0  0  0  0  0  0  0  0  0  0  0  0
    4.5981    0.1550    0.0000 C   0  0  0  0  0  0  0  0  0  0  0  0
    3.7320   -1.3450    0.0000 C   0  0  0  0  0  0  0  0  0  0  0  0
    2.3291    0.4650    0.0000 H   0  0  0  0  0  0  0  0  0  0  0  0
    5.1350    0.4650    0.0000 H   0  0  0  0  0  0  0  0  0  0  0  0
    3.7320   -1.9650    0.0000 H   0  0  0  0  0  0  0  0  0  0  0  0
    4.2690    1.9650    0.0000 H   0  0  0  0  0  0  0  0  0  0  0  0
    2.0000   -1.9650    0.0000 H   0  0  0  0  0  0  0  0  0  0  0  0
    5.4641   -1.9650    0.0000 H   0  0  0  0  0  0  0  0  0  0  0  0
  1  4  1  0  0  0  0
  1 13  1  0  0  0  0
  2  5  1  0  0  0  0
  2 14  1  0  0  0  0
  3  6  1  0  0  0  0
  3 15  1  0  0  0  0
  4  7  2  0  0  0  0
  4  8  1  0  0  0  0
  5  7  1  0  0  0  0
  5  9  2  0  0  0  0
  6  8  2  0  0  0  0
  6  9  1  0  0  0  0
  7 10  1  0  0  0  0
  8 11  1  0  0  0  0
  9 12  1  0  0  0  0
M  END
> <PUBCHEM_COMPOUND_CID>
359

> <PUBCHEM_COMPOUND_CANONICALIZED>
1

> <PUBCHEM_CACTVS_COMPLEXITY>
63.3

> <PUBCHEM_CACTVS_HBOND_ACCEPTOR>
3

> <PUBCHEM_CACTVS_HBOND_DONOR>
3

> <PUBCHEM_CACTVS_ROTATABLE_BOND>
0

> <PUBCHEM_CACTVS_SUBSKEYS>
AAADcYBgMAAAAAAAAAAAAAAAAAAAAAAAAAAwAAAAAAAAAAABAAAAGgAACAAACASAkAAwBoAAAgCAACBCAAACAAAgIAAAiAAGCIgIJyKCERKAcAAlwBUImAeAYAQAAAAACAAAAAAAAAAQAAAAAAAAAAAAAA==

> <PUBCHEM_IUPAC_OPENEYE_NAME>
benzene-1,3,5-triol

> <PUBCHEM_IUPAC_CAS_NAME>
benzene-1,3,5-triol

> <PUBCHEM_IUPAC_NAME_MARKUP>
benzene-1,3,5-triol

> <PUBCHEM_IUPAC_NAME>
benzene-1,3,5-triol

> <PUBCHEM_IUPAC_SYSTEMATIC_NAME>
benzene-1,3,5-triol

> <PUBCHEM_IUPAC_TRADITIONAL_NAME>
phloroglucinol

> <PUBCHEM_IUPAC_INCHI>
InChI=1S/C6H6O3/c7-4-1-5(8)3-6(9)2-4/h1-3,7-9H

> <PUBCHEM_IUPAC_INCHIKEY>
QCDYQQDYXPDABM-UHFFFAOYSA-N

> <PUBCHEM_XLOGP3>
0.2

> <PUBCHEM_EXACT_MASS>
126.031694

> <PUBCHEM_MOLECULAR_FORMULA>
C6H6O3

> <PUBCHEM_MOLECULAR_WEIGHT>
126.11

> <PUBCHEM_OPENEYE_CAN_SMILES>
C1=C(C=C(C=C1O)O)O

> <PUBCHEM_OPENEYE_ISO_SMILES>
C1=C(C=C(C=C1O)O)O

> <PUBCHEM_CACTVS_TPSA>
60.7

> <PUBCHEM_MONOISOTOPIC_WEIGHT>
126.031694

> <PUBCHEM_TOTAL_CHARGE>
0

> <PUBCHEM_HEAVY_ATOM_COUNT>
9

> <PUBCHEM_ATOM_DEF_STEREO_COUNT>
0

> <PUBCHEM_ATOM_UDEF_STEREO_COUNT>
0

> <PUBCHEM_BOND_DEF_STEREO_COUNT>
0

> <PUBCHEM_BOND_UDEF_STEREO_COUNT>
0

> <PUBCHEM_ISOTOPIC_ATOM_COUNT>
0

> <PUBCHEM_COMPONENT_COUNT>
1

> <PUBCHEM_CACTVS_TAUTO_COUNT>
-1

> <PUBCHEM_COORDINATE_TYPE>
1
5
255

> <PUBCHEM_BONDANNOTATIONS>
4  7  8
4  8  8
5  7  8
5  9  8
6  8  8
6  9  8

$$$$
338
  -OEChem-04052116402D

 16 16  0     0  0  0  0  0  0999 V2000
    2.5369   -0.0600    0.0000 O   0  0  0  0  0  0  0  0  0  0  0  0
    5.1350    1.4400    0.0000 O   0  0  0  0  0  0  0  0  0  0  0  0
    3.4030    1.4400    0.0000 O   0  0  0  0  0  0  0  0  0  0  0  0
    4.2690   -0.0600    0.0000 C   0  0  0  0  0  0  0  0  0  0  0  0
    3.4030   -0.5600    0.0000 C   0  0  0  0  0  0  0  0  0  0  0  0
    5.1350   -0.5600    0.0000 C   0  0  0  0  0  0  0  0  0  0  0  0
    3.4030   -1.5600    0.0000 C   0  0  0  0  0  0  0  0  0  0  0  0
    5.1350   -1.5600    0.0000 C   0  0  0  0  0  0  0  0  0  0  0  0
    4.2690   -2.0600    0.0000 C   0  0  0  0  0  0  0  0  0  0  0  0
    4.2690    0.9400    0.0000 C   0  0  0  0  0  0  0  0  0  0  0  0
    5.6720   -0.2500    0.0000 H   0  0  0  0  0  0  0  0  0  0  0  0
    2.8660   -1.8700    0.0000 H   0  0  0  0  0  0  0  0  0  0  0  0
    5.6720   -1.8700    0.0000 H   0  0  0  0  0  0  0  0  0  0  0  0
    4.2690   -2.6800    0.0000 H   0  0  0  0  0  0  0  0  0  0  0  0
    2.0000   -0.3700    0.0000 H   0  0  0  0  0  0  0  0  0  0  0  0
    5.1350    2.0600    0.0000 H   0  0  0  0  0  0  0  0  0  0  0  0
  1  5  1  0  0  0  0
  1 15  1  0  0  0  0
  2 10  1  0  0  0  0
  2 16  1  0  0  0  0
  3 10  2  0  0  0  0
  4  5  1  0  0  0  0
  4  6  2  0  0  0  0
  4 10  1  0  0  0  0
  5  7  2  0  0  0  0
  6  8  1  0  0  0  0
  6 11  1  0  0  0  0
  7  9  1  0  0  0  0
  7 12  1  0  0  0  0
  8  9  2  0  0  0  0
  8 13  1  0  0  0  0
  9 14  1  0  0  0  0
M  END
> <PUBCHEM_COMPOUND_CID>
338

> <PUBCHEM_COMPOUND_CANONICALIZED>
1

> <PUBCHEM_CACTVS_COMPLEXITY>
133

> <PUBCHEM_CACTVS_HBOND_ACCEPTOR>
3

> <PUBCHEM_CACTVS_HBOND_DONOR>
2

> <PUBCHEM_CACTVS_ROTATABLE_BOND>
1

> <PUBCHEM_CACTVS_SUBSKEYS>
AAADcYBgMAAAAAAAAAAAAAAAAAAAAAAAAAAwAAAAAAAAAAABAAAAGgAACAAADASAmAAwDoAAAgCIAiDSCAACAAAkIAAIiAEGCMgIJzaCFRKAcUAl4BEImYeIyCCOAAAAAAAIAAAAAAAAABAAAAAAAAAAAA==

> <PUBCHEM_IUPAC_OPENEYE_NAME>
2-hydroxybenzoic acid

> <PUBCHEM_IUPAC_CAS_NAME>
2-hydroxybenzoic acid

> <PUBCHEM_IUPAC_NAME_MARKUP>
2-hydroxybenzoic acid

> <PUBCHEM_IUPAC_NAME>
2-hydroxybenzoic acid

> <PUBCHEM_IUPAC_SYSTEMATIC_NAME>
2-oxidanylbenzoic acid

> <PUBCHEM_IUPAC_TRADITIONAL_NAME>
salicylic acid

> <PUBCHEM_IUPAC_INCHI>
InChI=1S/C7H6O3/c8-6-4-2-1-3-5(6)7(9)10/h1-4,8H,(H,9,10)

> <PUBCHEM_IUPAC_INCHIKEY>
YGSDEFSMJLZEOE-UHFFFAOYSA-N

> <PUBCHEM_XLOGP3>
2.3

> <PUBCHEM_EXACT_MASS>
138.031694

> <PUBCHEM_MOLECULAR_FORMULA>
C7H6O3

> <PUBCHEM_MOLECULAR_WEIGHT>
138.12

> <PUBCHEM_OPENEYE_CAN_SMILES>
C1=CC=C(C(=C1)C(=O)O)O

> <PUBCHEM_OPENEYE_ISO_SMILES>
C1=CC=C(C(=C1)C(=O)O)O

> <PUBCHEM_CACTVS_TPSA>
57.5

> <PUBCHEM_MONOISOTOPIC_WEIGHT>
138.031694

> <PUBCHEM_TOTAL_CHARGE>
0

> <PUBCHEM_HEAVY_ATOM_COUNT>
10

> <PUBCHEM_ATOM_DEF_STEREO_COUNT>
0

> <PUBCHEM_ATOM_UDEF_STEREO_COUNT>
0

> <PUBCHEM_BOND_DEF_STEREO_COUNT>
0

> <PUBCHEM_BOND_UDEF_STEREO_COUNT>
0

> <PUBCHEM_ISOTOPIC_ATOM_COUNT>
0

> <PUBCHEM_COMPONENT_COUNT>
1

> <PUBCHEM_CACTVS_TAUTO_COUNT>
-1

> <PUBCHEM_COORDINATE_TYPE>
1
5
255

> <PUBCHEM_BONDANNOTATIONS>
4  5  8
4  6  8
5  7  8
6  8  8
7  9  8
8  9  8

$$$$
311
  -OEChem-04052116402D

 21 20  0     0  0  0  0  0  0999 V2000
    4.7690   -1.0005    0.0000 O   0  0  0  0  0  0  0  0  0  0  0  0
    6.0010   -0.1345    0.0000 O   0  0  0  0  0  0  0  0  0  0  0  0
    5.1350    1.3655    0.0000 O   0  0  0  0  0  0  0  0  0  0  0  0
    2.5369   -2.1345    0.0000 O   0  0  0  0  0  0  0  0  0  0  0  0
    2.2690    1.5976    0.0000 O   0  0  0  0  0  0  0  0  0  0  0  0
    4.2690   -2.1345    0.0000 O   0  0  0  0  0  0  0  0  0  0  0  0
    2.2690   -0.1345    0.0000 O   0  0  0  0  0  0  0  0  0  0  0  0
    4.2690   -0.1345    0.0000 C   0  0  0  0  0  0  0  0  0  0  0  0
    3.4030   -0.6345    0.0000 C   0  0  0  0  0  0  0  0  0  0  0  0
    3.7690    0.7315    0.0000 C   0  0  0  0  0  0  0  0  0  0  0  0
    5.1350    0.3655    0.0000 C   0  0  0  0  0  0  0  0  0  0  0  0
    3.4030   -1.6345    0.0000 C   0  0  0  0  0  0  0  0  0  0  0  0
    2.7690    0.7315    0.0000 C   0  0  0  0  0  0  0  0  0  0  0  0
    3.1909   -0.0519    0.0000 H   0  0  0  0  0  0  0  0  0  0  0  0
    2.7924   -0.7422    0.0000 H   0  0  0  0  0  0  0  0  0  0  0  0
    4.3516    0.9436    0.0000 H   0  0  0  0  0  0  0  0  0  0  0  0
    3.6613    1.3421    0.0000 H   0  0  0  0  0  0  0  0  0  0  0  0
    4.4590   -1.5374    0.0000 H   0  0  0  0  0  0  0  0  0  0  0  0
    6.5380    0.1755    0.0000 H   0  0  0  0  0  0  0  0  0  0  0  0
    2.0000   -1.8245    0.0000 H   0  0  0  0  0  0  0  0  0  0  0  0
    2.5790    2.1345    0.0000 H   0  0  0  0  0  0  0  0  0  0  0  0
  1  8  1  0  0  0  0
  1 18  1  0  0  0  0
  2 11  1  0  0  0  0
  2 19  1  0  0  0  0
  3 11  2  0  0  0  0
  4 12  1  0  0  0  0
  4 20  1  0  0  0  0
  5 13  1  0  0  0  0
  5 21  1  0  0  0  0
  6 12  2  0  0  0  0
  7 13  2  0  0  0  0
  8  9  1  0  0  0  0
  8 10  1  0  0  0  0
  8 11  1  0  0  0  0
  9 12  1  0  0  0  0
  9 14  1  0  0  0  0
  9 15  1  0  0  0  0
 10 13  1  0  0  0  0
 10 16  1  0  0  0  0
 10 17  1  0  0  0  0
M  END
> <PUBCHEM_COMPOUND_CID>
311

> <PUBCHEM_COMPOUND_CANONICALIZED>
1

> <PUBCHEM_CACTVS_COMPLEXITY>
227

> <PUBCHEM_CACTVS_HBOND_ACCEPTOR>
7

> <PUBCHEM_CACTVS_HBOND_DONOR>
4

> <PUBCHEM_CACTVS_ROTATABLE_BOND>
5

> <PUBCHEM_CACTVS_SUBSKEYS>
AAADccBgOAAAAAAAAAAAAAAAAAAAAAAAAAAAAAAAAAAAAAAAAAAAGgAACAAADESAgAAACAAAAgAIAACQCAIAAAAAAAAAAAFAAAABABYAAAAAQAAFIAABAADLJgAKAAAAAAAAAAAAAAAAAAAAAAAAAAAAAA==

> <PUBCHEM_IUPAC_OPENEYE_NAME>
citric acid

> <PUBCHEM_IUPAC_CAS_NAME>
2-hydroxypropane-1,2,3-tricarboxylic acid

> <PUBCHEM_IUPAC_NAME_MARKUP>
2-hydroxypropane-1,2,3-tricarboxylic acid

> <PUBCHEM_IUPAC_NAME>
2-hydroxypropane-1,2,3-tricarboxylic acid

> <PUBCHEM_IUPAC_SYSTEMATIC_NAME>
2-oxidanylpropane-1,2,3-tricarboxylic acid

> <PUBCHEM_IUPAC_TRADITIONAL_NAME>
citric acid

> <PUBCHEM_IUPAC_INCHI>
InChI=1S/C6H8O7/c7-3(8)1-6(13,5(11)12)2-4(9)10/h13H,1-2H2,(H,7,8)(H,9,10)(H,11,12)

> <PUBCHEM_IUPAC_INCHIKEY>
KRKNYBCHXYNGOX-UHFFFAOYSA-N

> <PUBCHEM_XLOGP3>
-1.7

> <PUBCHEM_EXACT_MASS>
192.027003

> <PUBCHEM_MOLECULAR_FORMULA>
C6H8O7

> <PUBCHEM_MOLECULAR_WEIGHT>
192.12

> <PUBCHEM_OPENEYE_CAN_SMILES>
C(C(=O)O)C(CC(=O)O)(C(=O)O)O

> <PUBCHEM_OPENEYE_ISO_SMILES>
C(C(=O)O)C(CC(=O)O)(C(=O)O)O

> <PUBCHEM_CACTVS_TPSA>
132

> <PUBCHEM_MONOISOTOPIC_WEIGHT>
192.027003

> <PUBCHEM_TOTAL_CHARGE>
0

> <PUBCHEM_HEAVY_ATOM_COUNT>
13

> <PUBCHEM_ATOM_DEF_STEREO_COUNT>
0

> <PUBCHEM_ATOM_UDEF_STEREO_COUNT>
0

> <PUBCHEM_BOND_DEF_STEREO_COUNT>
0

> <PUBCHEM_BOND_UDEF_STEREO_COUNT>
0

> <PUBCHEM_ISOTOPIC_ATOM_COUNT>
0

> <PUBCHEM_COMPONENT_COUNT>
1

> <PUBCHEM_CACTVS_TAUTO_COUNT>
-1

> <PUBCHEM_COORDINATE_TYPE>
1
5
255

$$$$
297
  -OEChem-04052116402D

  5  4  0     0  0  0  0  0  0999 V2000
    2.5369    0.0000    0.0000 C   0  0  0  0  0  0  0  0  0  0  0  0
    3.0739    0.3100    0.0000 H   0  0  0  0  0  0  0  0  0  0  0  0
    2.0000   -0.3100    0.0000 H   0  0  0  0  0  0  0  0  0  0  0  0
    2.2269    0.5369    0.0000 H   0  0  0  0  0  0  0  0  0  0  0  0
    2.8469   -0.5369    0.0000 H   0  0  0  0  0  0  0  0  0  0  0  0
  1  2  1  0  0  0  0
  1  3  1  0  0  0  0
  1  4  1  0  0  0  0
  1  5  1  0  0  0  0
M  END
> <PUBCHEM_COMPOUND_CID>
297

> <PUBCHEM_COMPOUND_CANONICALIZED>
1

> <PUBCHEM_CACTVS_COMPLEXITY>
0

> <PUBCHEM_CACTVS_HBOND_ACCEPTOR>
0

> <PUBCHEM_CACTVS_HBOND_DONOR>
0

> <PUBCHEM_CACTVS_ROTATABLE_BOND>
0

> <PUBCHEM_CACTVS_SUBSKEYS>
AAADcYAAAAAAAAAAAAAAAAAAAAAAAAAAAAAAAAAAAAAAAAAAAAAAEAAAAAAAAAAAAAACAAAAAAAAAAAAAAAAAAAAAAAAAAAAAAAAAAAAAAAAAAAAAAAAAAAAAAAAAAAAAAAAAAAAAAAAAAAAAAAAAAAAAA==

> <PUBCHEM_IUPAC_OPENEYE_NAME>
methane

> <PUBCHEM_IUPAC_CAS_NAME>
methane

> <PUBCHEM_IUPAC_NAME_MARKUP>
methane

> <PUBCHEM_IUPAC_NAME>
methane

> <PUBCHEM_IUPAC_SYSTEMATIC_NAME>
methane

> <PUBCHEM_IUPAC_TRADITIONAL_NAME>
methane

> <PUBCHEM_IUPAC_INCHI>
InChI=1S/CH4/h1H4

> <PUBCHEM_IUPAC_INCHIKEY>
VNWKTOKETHGBQD-UHFFFAOYSA-N

> <PUBCHEM_XLOGP3_AA>
0.6

> <PUBCHEM_EXACT_MASS>
16.0313

> <PUBCHEM_MOLECULAR_FORMULA>
CH4

> <PUBCHEM_MOLECULAR_WEIGHT>
16.043

> <PUBCHEM_OPENEYE_CAN_SMILES>
C

> <PUBCHEM_OPENEYE_ISO_SMILES>
C

> <PUBCHEM_CACTVS_TPSA>
0

> <PUBCHEM_MONOISOTOPIC_WEIGHT>
16.0313

> <PUBCHEM_TOTAL_CHARGE>
0

> <PUBCHEM_HEAVY_ATOM_COUNT>
1

> <PUBCHEM_ATOM_DEF_STEREO_COUNT>
0

> <PUBCHEM_ATOM_UDEF_STEREO_COUNT>
0

> <PUBCHEM_BOND_DEF_STEREO_COUNT>
0

> <PUBCHEM_BOND_UDEF_STEREO_COUNT>
0

> <PUBCHEM_ISOTOPIC_ATOM_COUNT>
0

> <PUBCHEM_COMPONENT_COUNT>
1

> <PUBCHEM_CACTVS_TAUTO_COUNT>
-1

> <PUBCHEM_COORDINATE_TYPE>
1
5
255

$$$$
289
  -OEChem-04052116402D

 14 14  0     0  0  0  0  0  0999 V2000
    4.2690    1.3450    0.0000 O   0  0  0  0  0  0  0  0  0  0  0  0
    2.5369    0.3450    0.0000 O   0  0  0  0  0  0  0  0  0  0  0  0
    4.2690    0.3450    0.0000 C   0  0  0  0  0  0  0  0  0  0  0  0
    3.4030   -0.1550    0.0000 C   0  0  0  0  0  0  0  0  0  0  0  0
    5.1350   -0.1550    0.0000 C   0  0  0  0  0  0  0  0  0  0  0  0
    3.4030   -1.1550    0.0000 C   0  0  0  0  0  0  0  0  0  0  0  0
    5.1350   -1.1550    0.0000 C   0  0  0  0  0  0  0  0  0  0  0  0
    4.2690   -1.6550    0.0000 C   0  0  0  0  0  0  0  0  0  0  0  0
    5.6720    0.1550    0.0000 H   0  0  0  0  0  0  0  0  0  0  0  0
    2.8660   -1.4650    0.0000 H   0  0  0  0  0  0  0  0  0  0  0  0
    5.6720   -1.4650    0.0000 H   0  0  0  0  0  0  0  0  0  0  0  0
    4.2690   -2.2750    0.0000 H   0  0  0  0  0  0  0  0  0  0  0  0
    4.8059    1.6550    0.0000 H   0  0  0  0  0  0  0  0  0  0  0  0
    2.0000    0.0350    0.0000 H   0  0  0  0  0  0  0  0  0  0  0  0
  1  3  1  0  0  0  0
  1 13  1  0  0  0  0
  2  4  1  0  0  0  0
  2 14  1  0  0  0  0
  3  4  1  0  0  0  0
  3  5  2  0  0  0  0
  4  6  2  0  0  0  0
  5  7  1  0  0  0  0
  5  9  1  0  0  0  0
  6  8  1  0  0  0  0
  6 10  1  0  0  0  0
  7  8  2  0  0  0  0
  7 11  1  0  0  0  0
  8 12  1  0  0  0  0
M  END
> <PUBCHEM_COMPOUND_CID>
289

> <PUBCHEM_COMPOUND_CANONICALIZED>
1

> <PUBCHEM_CACTVS_COMPLEXITY>
62.9

> <PUBCHEM_CACTVS_HBOND_ACCEPTOR>
2

> <PUBCHEM_CACTVS_HBOND_DONOR>
2

> <PUBCHEM_CACTVS_ROTATABLE_BOND>
0

> <PUBCHEM_CACTVS_SUBSKEYS>
AAADcYBgMAAAAAAAAAAAAAAAAAAAAAAAAAAwAAAAAAAAAAABAAAAGgAACAAACASAkAAwBoAAAgCAACBCAAACAAAgIAAIiAAGiIgJJiKCERKAcAEkwBEJmAeAQAAAAAAAAAAAQAAAAAAAAACAAAAAAAAAAA==

> <PUBCHEM_IUPAC_OPENEYE_NAME>
benzene-1,2-diol

> <PUBCHEM_IUPAC_CAS_NAME>
benzene-1,2-diol

> <PUBCHEM_IUPAC_NAME_MARKUP>
benzene-1,2-diol

> <PUBCHEM_IUPAC_NAME>
benzene-1,2-diol

> <PUBCHEM_IUPAC_SYSTEMATIC_NAME>
benzene-1,2-diol

> <PUBCHEM_IUPAC_TRADITIONAL_NAME>
pyrocatechol

> <PUBCHEM_IUPAC_INCHI>
InChI=1S/C6H6O2/c7-5-3-1-2-4-6(5)8/h1-4,7-8H

> <PUBCHEM_IUPAC_INCHIKEY>
YCIMNLLNPGFGHC-UHFFFAOYSA-N

> <PUBCHEM_XLOGP3>
0.9

> <PUBCHEM_EXACT_MASS>
110.036779

> <PUBCHEM_MOLECULAR_FORMULA>
C6H6O2

> <PUBCHEM_MOLECULAR_WEIGHT>
110.11

> <PUBCHEM_OPENEYE_CAN_SMILES>
C1=CC=C(C(=C1)O)O

> <PUBCHEM_OPENEYE_ISO_SMILES>
C1=CC=C(C(=C1)O)O

> <PUBCHEM_CACTVS_TPSA>
40.5

> <PUBCHEM_MONOISOTOPIC_WEIGHT>
110.036779

> <PUBCHEM_TOTAL_CHARGE>
0

> <PUBCHEM_HEAVY_ATOM_COUNT>
8

> <PUBCHEM_ATOM_DEF_STEREO_COUNT>
0

> <PUBCHEM_ATOM_UDEF_STEREO_COUNT>
0

> <PUBCHEM_BOND_DEF_STEREO_COUNT>
0

> <PUBCHEM_BOND_UDEF_STEREO_COUNT>
0

> <PUBCHEM_ISOTOPIC_ATOM_COUNT>
0

> <PUBCHEM_COMPONENT_COUNT>
1

> <PUBCHEM_CACTVS_TAUTO_COUNT>
-1

> <PUBCHEM_COORDINATE_TYPE>
1
5
255

> <PUBCHEM_BONDANNOTATIONS>
3  4  8
3  5  8
4  6  8
5  7  8
6  8  8
7  8  8

$$$$
190
  -OEChem-04052116402D

 15 16  0     0  0  0  0  0  0999 V2000
    4.6783    0.1497    0.0000 N   0  0  0  0  0  0  0  0  0  0  0  0
    4.6783   -1.4597    0.0000 N   0  0  0  0  0  0  0  0  0  0  0  0
    2.8660   -1.6550    0.0000 N   0  0  0  0  0  0  0  0  0  0  0  0
    2.0000   -0.1550    0.0000 N   0  0  0  0  0  0  0  0  0  0  0  0
    2.8660    1.3450    0.0000 N   0  0  0  0  0  0  0  0  0  0  0  0
    3.7320   -0.1550    0.0000 C   0  0  0  0  0  0  0  0  0  0  0  0
    3.7320   -1.1550    0.0000 C   0  0  0  0  0  0  0  0  0  0  0  0
    2.8660    0.3450    0.0000 C   0  0  0  0  0  0  0  0  0  0  0  0
    5.2619   -0.6550    0.0000 C   0  0  0  0  0  0  0  0  0  0  0  0
    2.0000   -1.1550    0.0000 C   0  0  0  0  0  0  0  0  0  0  0  0
    4.8709    0.7391    0.0000 H   0  0  0  0  0  0  0  0  0  0  0  0
    5.8819   -0.6550    0.0000 H   0  0  0  0  0  0  0  0  0  0  0  0
    1.4631   -1.4650    0.0000 H   0  0  0  0  0  0  0  0  0  0  0  0
    2.3291    1.6550    0.0000 H   0  0  0  0  0  0  0  0  0  0  0  0
    3.4030    1.6550    0.0000 H   0  0  0  0  0  0  0  0  0  0  0  0
  1  6  1  0  0  0  0
  1  9  1  0  0  0  0
  1 11  1  0  0  0  0
  2  7  1  0  0  0  0
  2  9  2  0  0  0  0
  3  7  2  0  0  0  0
  3 10  1  0  0  0  0
  4  8  1  0  0  0  0
  4 10  2  0  0  0  0
  5  8  1  0  0  0  0
  5 14  1  0  0  0  0
  5 15  1  0  0  0  0
  6  7  1  0  0  0  0
  6  8  2  0  0  0  0
  9 12  1  0  0  0  0
 10 13  1  0  0  0  0
M  END
> <PUBCHEM_COMPOUND_CID>
190

> <PUBCHEM_COMPOUND_CANONICALIZED>
1

> <PUBCHEM_CACTVS_COMPLEXITY>
127

> <PUBCHEM_CACTVS_HBOND_ACCEPTOR>
4

> <PUBCHEM_CACTVS_HBOND_DONOR>
2

> <PUBCHEM_CACTVS_ROTATABLE_BOND>
0

> <PUBCHEM_CACTVS_SUBSKEYS>
AAADcYBjgAAAAAAAAAAAAAAAAAAAAWAAAAAsAAAAAAAAAFgB+AAAHAAQAAAACAgBFwQF8L7JkACgAQZhZACAgC2REKABUaAoVBCASABASEAUBAgIAAJAACAAAAAAAAAAAAAAAAAAAAAAAAAAAAAAAAAAAA==

> <PUBCHEM_IUPAC_OPENEYE_NAME>
7H-purin-6-amine

> <PUBCHEM_IUPAC_CAS_NAME>
7H-purin-6-amine

> <PUBCHEM_IUPAC_NAME_MARKUP>
7<I>H</I>-purin-6-amine

> <PUBCHEM_IUPAC_NAME>
7H-purin-6-amine

> <PUBCHEM_IUPAC_SYSTEMATIC_NAME>
7H-purin-6-amine

> <PUBCHEM_IUPAC_TRADITIONAL_NAME>
7H-adenine

> <PUBCHEM_IUPAC_INCHI>
InChI=1S/C5H5N5/c6-4-3-5(9-1-7-3)10-2-8-4/h1-2H,(H3,6,7,8,9,10)

> <PUBCHEM_IUPAC_INCHIKEY>
GFFGJBXGBJISGV-UHFFFAOYSA-N

> <PUBCHEM_XLOGP3>
-0.1

> <PUBCHEM_EXACT_MASS>
135.054495

> <PUBCHEM_MOLECULAR_FORMULA>
C5H5N5

> <PUBCHEM_MOLECULAR_WEIGHT>
135.13

> <PUBCHEM_OPENEYE_CAN_SMILES>
C1=NC2=NC=NC(=C2N1)N

> <PUBCHEM_OPENEYE_ISO_SMILES>
C1=NC2=NC=NC(=C2N1)N

> <PUBCHEM_CACTVS_TPSA>
80.5

> <PUBCHEM_MONOISOTOPIC_WEIGHT>
135.054495

> <PUBCHEM_TOTAL_CHARGE>
0

> <PUBCHEM_HEAVY_ATOM_COUNT>
10

> <PUBCHEM_ATOM_DEF_STEREO_COUNT>
0

> <PUBCHEM_ATOM_UDEF_STEREO_COUNT>
0

> <PUBCHEM_BOND_DEF_STEREO_COUNT>
0

> <PUBCHEM_BOND_UDEF_STEREO_COUNT>
0

> <PUBCHEM_ISOTOPIC_ATOM_COUNT>
0

> <PUBCHEM_COMPONENT_COUNT>
1

> <PUBCHEM_CACTVS_TAUTO_COUNT>
-1

> <PUBCHEM_COORDINATE_TYPE>
1
5
255

> <PUBCHEM_BONDANNOTATIONS>
1  6  8
1  9  8
2  7  8
2  9  8
3  10  8
3  7  8
4  10  8
4  8  8
6  7  8
6  8  8

$$$$
