154701554
  -OEChem-04052116542D

 90 96  0     1  0  0  0  0  0999 V2000
    7.7331   -3.9635    0.0000 O   0  0  0  0  0  0  0  0  0  0  0  0
   12.3658    1.0284    0.0000 O   0  0  0  0  0  0  0  0  0  0  0  0
    9.4651   -3.9635    0.0000 O   0  0  0  0  0  0  0  0  0  0  0  0
    6.0010   -2.9635    0.0000 O   0  0  0  0  0  0  0  0  0  0  0  0
    9.4929   -0.8556    0.0000 O   0  0  0  0  0  0  0  0  0  0  0  0
    6.0010   -5.9635    0.0000 O   0  0  0  0  0  0  0  0  0  0  0  0
    7.7331   -6.9635    0.0000 O   0  0  0  0  0  0  0  0  0  0  0  0
   14.4485    2.7604    0.0000 O   0  0  0  0  0  0  0  0  0  0  0  0
    9.4651   -5.9635    0.0000 O   0  0  0  0  0  0  0  0  0  0  0  0
    4.2690   -2.9635    0.0000 O   0  0  0  0  0  0  0  0  0  0  0  0
    6.0010   -0.9635    0.0000 O   0  0  0  0  0  0  0  0  0  0  0  0
    4.2690    0.0365    0.0000 O   0  0  0  0  0  0  0  0  0  0  0  0
   10.8859    3.6380    0.0000 O   0  0  0  0  0  0  0  0  0  0  0  0
    2.5369   -0.9635    0.0000 O   0  0  0  0  0  0  0  0  0  0  0  0
   12.3680    6.4055    0.0000 O   0  0  0  0  0  0  0  0  0  0  0  0
   14.4596    6.4055    0.0000 O   0  0  0  0  0  0  0  0  0  0  0  0
    6.8671   -4.4635    0.0000 C   0  0  1  0  0  0  0  0  0  0  0  0
    6.8671   -5.4635    0.0000 C   0  0  2  0  0  0  0  0  0  0  0  0
    7.7331   -5.9635    0.0000 C   0  0  1  0  0  0  0  0  0  0  0  0
    8.5991   -5.4635    0.0000 C   0  0  2  0  0  0  0  0  0  0  0  0
    8.5991   -4.4635    0.0000 C   0  0  1  0  0  0  0  0  0  0  0  0
   12.3791    2.7604    0.0000 C   0  0  2  0  0  0  0  0  0  0  0  0
   12.8725    1.8906    0.0000 C   0  0  2  0  0  0  0  0  0  0  0  0
    6.0010   -3.9635    0.0000 C   0  0  0  0  0  0  0  0  0  0  0  0
   10.8520    0.1301    0.0000 C   0  0  0  0  0  0  0  0  0  0  0  0
   10.3312   -1.4635    0.0000 C   0  0  1  0  0  0  0  0  0  0  0  0
   11.1694   -0.8556    0.0000 C   0  0  0  0  0  0  0  0  0  0  0  0
   11.3658    1.0361    0.0000 C   0  0  0  0  0  0  0  0  0  0  0  0
   10.8725    1.9060    0.0000 C   0  0  0  0  0  0  0  0  0  0  0  0
   11.3792    2.7681    0.0000 C   0  0  0  0  0  0  0  0  0  0  0  0
   12.8930    3.6665    0.0000 C   0  0  0  0  0  0  0  0  0  0  0  0
   13.9138    1.8665    0.0000 C   0  0  0  0  0  0  0  0  0  0  0  0
    5.1350   -2.4635    0.0000 C   0  0  2  0  0  0  0  0  0  0  0  0
    5.1350   -1.4635    0.0000 C   0  0  1  0  0  0  0  0  0  0  0  0
    9.8104    0.1301    0.0000 C   0  0  0  0  0  0  0  0  0  0  0  0
    4.2690   -0.9635    0.0000 C   0  0  2  0  0  0  0  0  0  0  0  0
   10.3312   -2.4635    0.0000 C   0  0  0  0  0  0  0  0  0  0  0  0
    9.4651   -2.9635    0.0000 C   0  0  0  0  0  0  0  0  0  0  0  0
    3.4030   -1.4635    0.0000 C   0  0  2  0  0  0  0  0  0  0  0  0
   13.9346    3.6665    0.0000 C   0  0  0  0  0  0  0  0  0  0  0  0
    9.8312    1.9301    0.0000 C   0  0  0  0  0  0  0  0  0  0  0  0
    3.4030   -2.4635    0.0000 C   0  0  0  0  0  0  0  0  0  0  0  0
    9.2965    1.0361    0.0000 C   0  0  0  0  0  0  0  0  0  0  0  0
   12.3361    4.5976    0.0000 C   0  0  0  0  0  0  0  0  0  0  0  0
   14.4915    4.5976    0.0000 C   0  0  0  0  0  0  0  0  0  0  0  0
   12.8713    5.5414    0.0000 C   0  0  0  0  0  0  0  0  0  0  0  0
   11.1972   -2.9635    0.0000 C   0  0  0  0  0  0  0  0  0  0  0  0
   13.9563    5.5414    0.0000 C   0  0  0  0  0  0  0  0  0  0  0  0
   12.8646    7.2735    0.0000 C   0  0  0  0  0  0  0  0  0  0  0  0
   15.4596    6.4017    0.0000 C   0  0  0  0  0  0  0  0  0  0  0  0
    6.8671   -3.8435    0.0000 H   0  0  0  0  0  0  0  0  0  0  0  0
    6.8671   -6.0835    0.0000 H   0  0  0  0  0  0  0  0  0  0  0  0
    7.1962   -6.2735    0.0000 H   0  0  0  0  0  0  0  0  0  0  0  0
    8.5991   -6.0835    0.0000 H   0  0  0  0  0  0  0  0  0  0  0  0
    8.5991   -3.8435    0.0000 H   0  0  0  0  0  0  0  0  0  0  0  0
   11.9541    3.4965    0.0000 H   0  0  0  0  0  0  0  0  0  0  0  0
   13.2861    1.1480    0.0000 H   0  0  0  0  0  0  0  0  0  0  0  0
    5.3905   -3.8558    0.0000 H   0  0  0  0  0  0  0  0  0  0  0  0
    5.7890   -4.5461    0.0000 H   0  0  0  0  0  0  0  0  0  0  0  0
    9.7789   -1.7452    0.0000 H   0  0  0  0  0  0  0  0  0  0  0  0
   11.4786   -1.3929    0.0000 H   0  0  0  0  0  0  0  0  0  0  0  0
   11.7363   -0.6045    0.0000 H   0  0  0  0  0  0  0  0  0  0  0  0
   13.7936    1.2582    0.0000 H   0  0  0  0  0  0  0  0  0  0  0  0
   14.4925    1.6440    0.0000 H   0  0  0  0  0  0  0  0  0  0  0  0
    5.6720   -2.1535    0.0000 H   0  0  0  0  0  0  0  0  0  0  0  0
    5.1350   -0.8435    0.0000 H   0  0  0  0  0  0  0  0  0  0  0  0
    3.7320   -0.6535    0.0000 H   0  0  0  0  0  0  0  0  0  0  0  0
    9.2531   -2.3808    0.0000 H   0  0  0  0  0  0  0  0  0  0  0  0
    8.8546   -3.0711    0.0000 H   0  0  0  0  0  0  0  0  0  0  0  0
    3.4030   -0.8435    0.0000 H   0  0  0  0  0  0  0  0  0  0  0  0
    9.5316    2.4729    0.0000 H   0  0  0  0  0  0  0  0  0  0  0  0
    2.7924   -2.3558    0.0000 H   0  0  0  0  0  0  0  0  0  0  0  0
    3.1909   -3.0461    0.0000 H   0  0  0  0  0  0  0  0  0  0  0  0
    8.6765    1.0433    0.0000 H   0  0  0  0  0  0  0  0  0  0  0  0
    5.4641   -5.6535    0.0000 H   0  0  0  0  0  0  0  0  0  0  0  0
    7.1962   -7.2735    0.0000 H   0  0  0  0  0  0  0  0  0  0  0  0
   10.0021   -5.6535    0.0000 H   0  0  0  0  0  0  0  0  0  0  0  0
   11.7161    4.5905    0.0000 H   0  0  0  0  0  0  0  0  0  0  0  0
   15.1115    4.5905    0.0000 H   0  0  0  0  0  0  0  0  0  0  0  0
   11.1972   -3.5835    0.0000 H   0  0  0  0  0  0  0  0  0  0  0  0
   11.7341   -2.6535    0.0000 H   0  0  0  0  0  0  0  0  0  0  0  0
    6.0010   -0.3435    0.0000 H   0  0  0  0  0  0  0  0  0  0  0  0
    3.7320    0.3465    0.0000 H   0  0  0  0  0  0  0  0  0  0  0  0
    2.0000   -1.2735    0.0000 H   0  0  0  0  0  0  0  0  0  0  0  0
   13.4028    6.9655    0.0000 H   0  0  0  0  0  0  0  0  0  0  0  0
   13.1726    7.8116    0.0000 H   0  0  0  0  0  0  0  0  0  0  0  0
   12.3265    7.5814    0.0000 H   0  0  0  0  0  0  0  0  0  0  0  0
   15.4572    5.7817    0.0000 H   0  0  0  0  0  0  0  0  0  0  0  0
   16.0796    6.3993    0.0000 H   0  0  0  0  0  0  0  0  0  0  0  0
   15.4620    7.0217    0.0000 H   0  0  0  0  0  0  0  0  0  0  0  0
  1 17  1  0  0  0  0
  1 21  1  0  0  0  0
  2 23  1  0  0  0  0
  2 28  1  0  0  0  0
 21  3  1  1  0  0  0
  3 38  1  0  0  0  0
  4 24  1  0  0  0  0
 33  4  1  6  0  0  0
  5 26  1  0  0  0  0
  5 35  1  0  0  0  0
 18  6  1  6  0  0  0
  6 75  1  0  0  0  0
 19  7  1  1  0  0  0
  7 76  1  0  0  0  0
  8 32  1  0  0  0  0
  8 40  1  0  0  0  0
 20  9  1  6  0  0  0
  9 77  1  0  0  0  0
 10 33  1  0  0  0  0
 10 42  1  0  0  0  0
 34 11  1  1  0  0  0
 11 82  1  0  0  0  0
 36 12  1  6  0  0  0
 12 83  1  0  0  0  0
 13 30  2  0  0  0  0
 39 14  1  6  0  0  0
 14 84  1  0  0  0  0
 15 46  1  0  0  0  0
 15 49  1  0  0  0  0
 16 48  1  0  0  0  0
 16 50  1  0  0  0  0
 17 18  1  0  0  0  0
 17 24  1  1  0  0  0
 17 51  1  0  0  0  0
 18 19  1  0  0  0  0
 18 52  1  0  0  0  0
 19 20  1  0  0  0  0
 19 53  1  0  0  0  0
 20 21  1  0  0  0  0
 20 54  1  0  0  0  0
 21 55  1  0  0  0  0
 22 23  1  0  0  0  0
 22 30  1  0  0  0  0
 22 31  1  0  0  0  0
 22 56  1  1  0  0  0
 23 32  1  0  0  0  0
 23 57  1  1  0  0  0
 24 58  1  0  0  0  0
 24 59  1  0  0  0  0
 25 27  1  0  0  0  0
 25 28  1  0  0  0  0
 25 35  2  0  0  0  0
 26 27  1  0  0  0  0
 26 37  1  1  0  0  0
 26 60  1  0  0  0  0
 27 61  1  0  0  0  0
 27 62  1  0  0  0  0
 28 29  2  0  0  0  0
 29 30  1  0  0  0  0
 29 41  1  0  0  0  0
 31 40  1  0  0  0  0
 31 44  2  0  0  0  0
 32 63  1  0  0  0  0
 32 64  1  0  0  0  0
 33 34  1  0  0  0  0
 33 65  1  0  0  0  0
 34 36  1  0  0  0  0
 34 66  1  0  0  0  0
 35 43  1  0  0  0  0
 36 39  1  0  0  0  0
 36 67  1  0  0  0  0
 37 38  1  0  0  0  0
 37 47  2  0  0  0  0
 38 68  1  0  0  0  0
 38 69  1  0  0  0  0
 39 42  1  0  0  0  0
 39 70  1  0  0  0  0
 40 45  2  0  0  0  0
 41 43  2  0  0  0  0
 41 71  1  0  0  0  0
 42 72  1  0  0  0  0
 42 73  1  0  0  0  0
 43 74  1  0  0  0  0
 44 46  1  0  0  0  0
 44 78  1  0  0  0  0
 45 48  1  0  0  0  0
 45 79  1  0  0  0  0
 46 48  2  0  0  0  0
 47 80  1  0  0  0  0
 47 81  1  0  0  0  0
 49 85  1  0  0  0  0
 49 86  1  0  0  0  0
 49 87  1  0  0  0  0
 50 88  1  0  0  0  0
 50 89  1  0  0  0  0
 50 90  1  0  0  0  0
M  END
> <PUBCHEM_COMPOUND_CID>
154701554

> <PUBCHEM_COMPOUND_CANONICALIZED>
1

> <PUBCHEM_CACTVS_COMPLEXITY>
1210

> <PUBCHEM_CACTVS_HBOND_ACCEPTOR>
16

> <PUBCHEM_CACTVS_HBOND_DONOR>
6

> <PUBCHEM_CACTVS_ROTATABLE_BOND>
9

> <PUBCHEM_CACTVS_SUBSKEYS>
AAADcfB8PgAAAAAAAAAAAAAAAAAAASAAAAA0aJEiAAAAAEiRQAAAGgAACAAADRSwmAMyDoAABgCIAqBSAAACCAAkIAAIiAEGiMgdNzaENRqieWKl4BUPqYfK7PzOoQADCAAIQABCAAYQABCAAAAAAAAAAA==

> <PUBCHEM_IUPAC_OPENEYE_NAME>
(1R,6S,13R)-16,17-dimethoxy-6-[1-[[(2R,3R,4S,5S,6R)-3,4,5-trihydroxy-6-[[(2S,3R,4S,5S)-3,4,5-trihydroxytetrahydropyran-2-yl]oxymethyl]tetrahydropyran-2-yl]oxymethyl]vinyl]-2,7,20-trioxapentacyclo[11.8.0.03,11.04,8.014,19]henicosa-3(11),4(8),9,14,16,18-hexaen-12-one

> <PUBCHEM_IUPAC_CAS_NAME>
(1R,6S,13R)-16,17-dimethoxy-6-[3-[[(2R,3R,4S,5S,6R)-3,4,5-trihydroxy-6-[[(2S,3R,4S,5S)-3,4,5-trihydroxy-2-oxanyl]oxymethyl]-2-oxanyl]oxy]prop-1-en-2-yl]-2,7,20-trioxapentacyclo[11.8.0.03,11.04,8.014,19]heneicosa-3(11),4(8),9,14,16,18-hexaen-12-one

> <PUBCHEM_IUPAC_NAME_MARKUP>
(1<I>R</I>,6<I>S</I>,13<I>R</I>)-16,17-dimethoxy-6-[3-[(2<I>R</I>,3<I>R</I>,4<I>S</I>,5<I>S</I>,6<I>R</I>)-3,4,5-trihydroxy-6-[[(2<I>S</I>,3<I>R</I>,4<I>S</I>,5<I>S</I>)-3,4,5-trihydroxyoxan-2-yl]oxymethyl]oxan-2-yl]oxyprop-1-en-2-yl]-2,7,20-trioxapentacyclo[11.8.0.0<SUP>3,11</SUP>.0<SUP>4,8</SUP>.0<SUP>14,19</SUP>]henicosa-3(11),4(8),9,14,16,18-hexaen-12-one

> <PUBCHEM_IUPAC_NAME>
(1R,6S,13R)-16,17-dimethoxy-6-[3-[(2R,3R,4S,5S,6R)-3,4,5-trihydroxy-6-[[(2S,3R,4S,5S)-3,4,5-trihydroxyoxan-2-yl]oxymethyl]oxan-2-yl]oxyprop-1-en-2-yl]-2,7,20-trioxapentacyclo[11.8.0.03,11.04,8.014,19]henicosa-3(11),4(8),9,14,16,18-hexaen-12-one

> <PUBCHEM_IUPAC_SYSTEMATIC_NAME>
(1R,6S,13R)-16,17-dimethoxy-6-[3-[(2R,3R,4S,5S,6R)-3,4,5-tris(oxidanyl)-6-[[(2S,3R,4S,5S)-3,4,5-tris(oxidanyl)oxan-2-yl]oxymethyl]oxan-2-yl]oxyprop-1-en-2-yl]-2,7,20-trioxapentacyclo[11.8.0.03,11.04,8.014,19]henicosa-3(11),4(8),9,14,16,18-hexaen-12-one

> <PUBCHEM_IUPAC_TRADITIONAL_NAME>
(1R,6S,13R)-16,17-dimethoxy-6-[1-[[(2R,3R,4S,5S,6R)-3,4,5-trihydroxy-6-[[(2S,3R,4S,5S)-3,4,5-trihydroxytetrahydropyran-2-yl]oxymethyl]tetrahydropyran-2-yl]oxymethyl]vinyl]-2,7,20-trioxapentacyclo[11.8.0.03,11.04,8.014,19]heneicosa-3(11),4(8),9,14,16,18-hexaen-12-one

> <PUBCHEM_IUPAC_INCHI>
InChI=1S/C34H40O16/c1-13(9-45-34-31(41)29(39)28(38)24(50-34)12-47-33-30(40)27(37)17(35)10-46-33)19-7-16-18(48-19)5-4-14-26(36)25-15-6-21(42-2)22(43-3)8-20(15)44-11-23(25)49-32(14)16/h4-6,8,17,19,23-25,27-31,33-35,37-41H,1,7,9-12H2,2-3H3/t17-,19-,23-,24+,25+,27-,28+,29-,30+,31+,33-,34+/m0/s1

> <PUBCHEM_IUPAC_INCHIKEY>
CMQOKNQYLSMKJC-KMSBREDFSA-N

> <PUBCHEM_XLOGP3>
-0.8

> <PUBCHEM_EXACT_MASS>
704.231635

> <PUBCHEM_MOLECULAR_FORMULA>
C34H40O16

> <PUBCHEM_MOLECULAR_WEIGHT>
704.7

> <PUBCHEM_OPENEYE_CAN_SMILES>
COC1=C(C=C2C(=C1)C3C(CO2)OC4=C(C3=O)C=CC5=C4CC(O5)C(=C)COC6C(C(C(C(O6)COC7C(C(C(CO7)O)O)O)O)O)O)OC

> <PUBCHEM_OPENEYE_ISO_SMILES>
COC1=C(C=C2C(=C1)[C@@H]3[C@H](CO2)OC4=C(C3=O)C=CC5=C4C[C@H](O5)C(=C)CO[C@H]6[C@@H]([C@H]([C@@H]([C@H](O6)CO[C@H]7[C@@H]([C@H]([C@H](CO7)O)O)O)O)O)O)OC

> <PUBCHEM_CACTVS_TPSA>
222

> <PUBCHEM_MONOISOTOPIC_WEIGHT>
704.231635

> <PUBCHEM_TOTAL_CHARGE>
0

> <PUBCHEM_HEAVY_ATOM_COUNT>
50

> <PUBCHEM_ATOM_DEF_STEREO_COUNT>
12

> <PUBCHEM_ATOM_UDEF_STEREO_COUNT>
0

> <PUBCHEM_BOND_DEF_STEREO_COUNT>
0

> <PUBCHEM_BOND_UDEF_STEREO_COUNT>
0

> <PUBCHEM_ISOTOPIC_ATOM_COUNT>
0

> <PUBCHEM_COMPONENT_COUNT>
1

> <PUBCHEM_CACTVS_TAUTO_COUNT>
-1

> <PUBCHEM_COORDINATE_TYPE>
1
5
255

> <PUBCHEM_BONDANNOTATIONS>
34  11  5
36  12  6
39  14  6
17  24  5
22  56  5
23  57  5
25  28  8
25  35  8
26  37  5
28  29  8
29  41  8
21  3  5
31  40  8
31  44  8
35  43  8
33  4  6
40  45  8
41  43  8
44  46  8
45  48  8
46  48  8
18  6  6
19  7  5
20  9  6

$$$$
146681238
  -OEChem-04052116542D

 70 73  0     1  0  0  0  0  0999 V2000
    3.4600    4.1272    0.0000 S   0  0  0  0  0  0  0  0  0  0  0  0
   10.3915    1.8076    0.0000 F   0  0  0  0  0  0  0  0  0  0  0  0
    7.4904   -4.5766    0.0000 O   0  0  0  0  0  0  0  0  0  0  0  0
    9.9757   -0.1487    0.0000 O   0  0  0  0  0  0  0  0  0  0  0  0
    6.3793   -0.4066    0.0000 O   0  0  0  0  0  0  0  0  0  0  0  0
    4.2690   -2.4606    0.0000 O   0  0  0  0  0  0  0  0  0  0  0  0
    2.5369    0.5394    0.0000 O   0  0  0  0  0  0  0  0  0  0  0  0
    6.9146   -2.0539    0.0000 N   0  0  0  0  0  0  0  0  0  0  0  0
    8.2815    0.2114    0.0000 N   0  0  0  0  0  0  0  0  0  0  0  0
    5.1350   -0.9606    0.0000 N   0  0  0  0  0  0  0  0  0  0  0  0
    4.7690    5.0782    0.0000 N   0  0  0  0  0  0  0  0  0  0  0  0
    9.4404    1.4986    0.0000 C   0  0  0  0  0  0  0  0  0  0  0  0
    9.1314    2.4496    0.0000 C   0  0  0  0  0  0  0  0  0  0  0  0
    8.4623    1.7065    0.0000 C   0  0  0  0  0  0  0  0  0  0  0  0
    8.0735   -0.7667    0.0000 C   0  0  3  0  0  0  0  0  0  0  0  0
    8.8167   -1.4359    0.0000 C   0  0  0  0  0  0  0  0  0  0  0  0
    6.0010   -2.4606    0.0000 C   0  0  3  0  0  0  0  0  0  0  0  0
    9.2325    0.5204    0.0000 C   0  0  0  0  0  0  0  0  0  0  0  0
    6.1056   -3.4552    0.0000 C   0  0  0  0  0  0  0  0  0  0  0  0
    7.5837   -2.7970    0.0000 C   0  0  0  0  0  0  0  0  0  0  0  0
    7.0837   -3.6631    0.0000 C   0  0  3  0  0  0  0  0  0  0  0  0
    7.1225   -1.0758    0.0000 C   0  0  0  0  0  0  0  0  0  0  0  0
    9.5598   -2.1050    0.0000 C   0  0  0  0  0  0  0  0  0  0  0  0
    9.4858   -0.6927    0.0000 C   0  0  0  0  0  0  0  0  0  0  0  0
    8.1476   -2.1790    0.0000 C   0  0  0  0  0  0  0  0  0  0  0  0
    5.1350   -1.9606    0.0000 C   0  0  0  0  0  0  0  0  0  0  0  0
    4.2690   -0.4606    0.0000 C   0  0  0  0  0  0  0  0  0  0  0  0
    4.2690    0.5394    0.0000 C   0  0  0  0  0  0  0  0  0  0  0  0
    3.4030    1.0394    0.0000 C   0  0  0  0  0  0  0  0  0  0  0  0
    5.1350    1.0394    0.0000 C   0  0  0  0  0  0  0  0  0  0  0  0
    3.4030    2.0394    0.0000 C   0  0  0  0  0  0  0  0  0  0  0  0
    5.1350    2.0394    0.0000 C   0  0  0  0  0  0  0  0  0  0  0  0
    4.2690    2.5394    0.0000 C   0  0  0  0  0  0  0  0  0  0  0  0
    4.2690    3.5394    0.0000 C   0  0  0  0  0  0  0  0  0  0  0  0
    5.0780    4.1272    0.0000 C   0  0  0  0  0  0  0  0  0  0  0  0
    6.0291    3.8181    0.0000 C   0  0  0  0  0  0  0  0  0  0  0  0
    3.7690    5.0782    0.0000 C   0  0  0  0  0  0  0  0  0  0  0  0
    9.6788    2.7407    0.0000 H   0  0  0  0  0  0  0  0  0  0  0  0
    8.7497    2.9382    0.0000 H   0  0  0  0  0  0  0  0  0  0  0  0
    7.9365    2.0350    0.0000 H   0  0  0  0  0  0  0  0  0  0  0  0
    8.2300    1.1316    0.0000 H   0  0  0  0  0  0  0  0  0  0  0  0
    8.6632   -0.5751    0.0000 H   0  0  0  0  0  0  0  0  0  0  0  0
    6.0335   -1.8415    0.0000 H   0  0  0  0  0  0  0  0  0  0  0  0
    5.4856   -3.4552    0.0000 H   0  0  0  0  0  0  0  0  0  0  0  0
    6.0408   -4.0718    0.0000 H   0  0  0  0  0  0  0  0  0  0  0  0
    8.0853   -3.1615    0.0000 H   0  0  0  0  0  0  0  0  0  0  0  0
    7.9986   -2.3363    0.0000 H   0  0  0  0  0  0  0  0  0  0  0  0
    7.7029   -3.6955    0.0000 H   0  0  0  0  0  0  0  0  0  0  0  0
    7.8207    0.6263    0.0000 H   0  0  0  0  0  0  0  0  0  0  0  0
    9.1450   -2.5658    0.0000 H   0  0  0  0  0  0  0  0  0  0  0  0
   10.0206   -2.5199    0.0000 H   0  0  0  0  0  0  0  0  0  0  0  0
    9.9747   -1.6442    0.0000 H   0  0  0  0  0  0  0  0  0  0  0  0
    9.9466   -1.1076    0.0000 H   0  0  0  0  0  0  0  0  0  0  0  0
    9.9007   -0.2320    0.0000 H   0  0  0  0  0  0  0  0  0  0  0  0
    9.0251   -0.2779    0.0000 H   0  0  0  0  0  0  0  0  0  0  0  0
    7.6868   -1.7642    0.0000 H   0  0  0  0  0  0  0  0  0  0  0  0
    7.7327   -2.6398    0.0000 H   0  0  0  0  0  0  0  0  0  0  0  0
    8.6083   -2.5939    0.0000 H   0  0  0  0  0  0  0  0  0  0  0  0
    7.1260   -5.0782    0.0000 H   0  0  0  0  0  0  0  0  0  0  0  0
    5.6720   -0.6506    0.0000 H   0  0  0  0  0  0  0  0  0  0  0  0
    3.6584   -0.3530    0.0000 H   0  0  0  0  0  0  0  0  0  0  0  0
    4.0569   -1.0432    0.0000 H   0  0  0  0  0  0  0  0  0  0  0  0
    5.6720    0.7294    0.0000 H   0  0  0  0  0  0  0  0  0  0  0  0
    2.8660    2.3494    0.0000 H   0  0  0  0  0  0  0  0  0  0  0  0
    5.6720    2.3494    0.0000 H   0  0  0  0  0  0  0  0  0  0  0  0
    2.0000    0.8494    0.0000 H   0  0  0  0  0  0  0  0  0  0  0  0
    5.8375    3.2285    0.0000 H   0  0  0  0  0  0  0  0  0  0  0  0
    6.6187    3.6265    0.0000 H   0  0  0  0  0  0  0  0  0  0  0  0
    6.2206    4.4078    0.0000 H   0  0  0  0  0  0  0  0  0  0  0  0
    3.4046    5.5798    0.0000 H   0  0  0  0  0  0  0  0  0  0  0  0
  1 34  1  0  0  0  0
  1 37  1  0  0  0  0
  2 12  1  0  0  0  0
  3 21  1  0  0  0  0
  3 59  1  0  0  0  0
  4 18  2  0  0  0  0
  5 22  2  0  0  0  0
  6 26  2  0  0  0  0
  7 29  1  0  0  0  0
  7 66  1  0  0  0  0
  8 17  1  0  0  0  0
  8 20  1  0  0  0  0
  8 22  1  0  0  0  0
  9 15  1  0  0  0  0
  9 18  1  0  0  0  0
  9 49  1  0  0  0  0
 10 26  1  0  0  0  0
 10 27  1  0  0  0  0
 10 60  1  0  0  0  0
 11 35  1  0  0  0  0
 11 37  2  0  0  0  0
 12 13  1  0  0  0  0
 12 14  1  0  0  0  0
 12 18  1  0  0  0  0
 13 14  1  0  0  0  0
 13 38  1  0  0  0  0
 13 39  1  0  0  0  0
 14 40  1  0  0  0  0
 14 41  1  0  0  0  0
 15 16  1  0  0  0  0
 15 22  1  0  0  0  0
 15 42  1  0  0  0  0
 16 23  1  0  0  0  0
 16 24  1  0  0  0  0
 16 25  1  0  0  0  0
 17 19  1  0  0  0  0
 17 26  1  0  0  0  0
 17 43  1  0  0  0  0
 19 21  1  0  0  0  0
 19 44  1  0  0  0  0
 19 45  1  0  0  0  0
 20 21  1  0  0  0  0
 20 46  1  0  0  0  0
 20 47  1  0  0  0  0
 21 48  1  0  0  0  0
 23 50  1  0  0  0  0
 23 51  1  0  0  0  0
 23 52  1  0  0  0  0
 24 53  1  0  0  0  0
 24 54  1  0  0  0  0
 24 55  1  0  0  0  0
 25 56  1  0  0  0  0
 25 57  1  0  0  0  0
 25 58  1  0  0  0  0
 27 28  1  0  0  0  0
 27 61  1  0  0  0  0
 27 62  1  0  0  0  0
 28 29  2  0  0  0  0
 28 30  1  0  0  0  0
 29 31  1  0  0  0  0
 30 32  2  0  0  0  0
 30 63  1  0  0  0  0
 31 33  2  0  0  0  0
 31 64  1  0  0  0  0
 32 33  1  0  0  0  0
 32 65  1  0  0  0  0
 33 34  1  0  0  0  0
 34 35  2  0  0  0  0
 35 36  1  0  0  0  0
 36 67  1  0  0  0  0
 36 68  1  0  0  0  0
 36 69  1  0  0  0  0
 37 70  1  0  0  0  0
M  END
> <PUBCHEM_COMPOUND_CID>
146681238

> <PUBCHEM_COMPOUND_CANONICALIZED>
1

> <PUBCHEM_CACTVS_COMPLEXITY>
882

> <PUBCHEM_CACTVS_HBOND_ACCEPTOR>
8

> <PUBCHEM_CACTVS_HBOND_DONOR>
4

> <PUBCHEM_CACTVS_ROTATABLE_BOND>
8

> <PUBCHEM_CACTVS_SUBSKEYS>
AAADcfB7uQBAAAAAAAAAAAAAGAAAAWLAAAAwAAAAAAAAAAABwAAAHwQQCAAADjzh3ga2h5PIEgisAyVzVACC8KBxKDgI2JW+TIgKdjLikTOUcAhm1hHY2Ae60fMPQAABAAAIAACAAAIAABAAAAAAAAAAAA==

> <PUBCHEM_IUPAC_OPENEYE_NAME>
1-[2-[(1-fluorocyclopropanecarbonyl)amino]-3,3-dimethyl-butanoyl]-4-hydroxy-N-[[2-hydroxy-4-(4-methylthiazol-5-yl)phenyl]methyl]pyrrolidine-2-carboxamide

> <PUBCHEM_IUPAC_CAS_NAME>
1-[2-[[(1-fluorocyclopropyl)-oxomethyl]amino]-3,3-dimethyl-1-oxobutyl]-4-hydroxy-N-[[2-hydroxy-4-(4-methyl-5-thiazolyl)phenyl]methyl]-2-pyrrolidinecarboxamide

> <PUBCHEM_IUPAC_NAME_MARKUP>
1-[2-[(1-fluorocyclopropanecarbonyl)amino]-3,3-dimethylbutanoyl]-4-hydroxy-<I>N</I>-[[2-hydroxy-4-(4-methyl-1,3-thiazol-5-yl)phenyl]methyl]pyrrolidine-2-carboxamide

> <PUBCHEM_IUPAC_NAME>
1-[2-[(1-fluorocyclopropanecarbonyl)amino]-3,3-dimethylbutanoyl]-4-hydroxy-N-[[2-hydroxy-4-(4-methyl-1,3-thiazol-5-yl)phenyl]methyl]pyrrolidine-2-carboxamide

> <PUBCHEM_IUPAC_SYSTEMATIC_NAME>
1-[2-[(1-fluoranylcyclopropyl)carbonylamino]-3,3-dimethyl-butanoyl]-N-[[4-(4-methyl-1,3-thiazol-5-yl)-2-oxidanyl-phenyl]methyl]-4-oxidanyl-pyrrolidine-2-carboxamide

> <PUBCHEM_IUPAC_TRADITIONAL_NAME>
1-[2-[(1-fluorocyclopropanecarbonyl)amino]-3,3-dimethyl-butanoyl]-4-hydroxy-N-[2-hydroxy-4-(4-methylthiazol-5-yl)benzyl]pyrrolidine-2-carboxamide

> <PUBCHEM_IUPAC_INCHI>
InChI=1S/C26H33FN4O5S/c1-14-20(37-13-29-14)15-5-6-16(19(33)9-15)11-28-22(34)18-10-17(32)12-31(18)23(35)21(25(2,3)4)30-24(36)26(27)7-8-26/h5-6,9,13,17-18,21,32-33H,7-8,10-12H2,1-4H3,(H,28,34)(H,30,36)

> <PUBCHEM_IUPAC_INCHIKEY>
OKBLHQUBMCCFKE-UHFFFAOYSA-N

> <PUBCHEM_XLOGP3_AA>
3.2

> <PUBCHEM_EXACT_MASS>
532.21557

> <PUBCHEM_MOLECULAR_FORMULA>
C26H33FN4O5S

> <PUBCHEM_MOLECULAR_WEIGHT>
532.6

> <PUBCHEM_OPENEYE_CAN_SMILES>
CC1=C(SC=N1)C2=CC(=C(C=C2)CNC(=O)C3CC(CN3C(=O)C(C(C)(C)C)NC(=O)C4(CC4)F)O)O

> <PUBCHEM_OPENEYE_ISO_SMILES>
CC1=C(SC=N1)C2=CC(=C(C=C2)CNC(=O)C3CC(CN3C(=O)C(C(C)(C)C)NC(=O)C4(CC4)F)O)O

> <PUBCHEM_CACTVS_TPSA>
160

> <PUBCHEM_MONOISOTOPIC_WEIGHT>
532.21557

> <PUBCHEM_TOTAL_CHARGE>
0

> <PUBCHEM_HEAVY_ATOM_COUNT>
37

> <PUBCHEM_ATOM_DEF_STEREO_COUNT>
0

> <PUBCHEM_ATOM_UDEF_STEREO_COUNT>
3

> <PUBCHEM_BOND_DEF_STEREO_COUNT>
0

> <PUBCHEM_BOND_UDEF_STEREO_COUNT>
0

> <PUBCHEM_ISOTOPIC_ATOM_COUNT>
0

> <PUBCHEM_COMPONENT_COUNT>
1

> <PUBCHEM_CACTVS_TAUTO_COUNT>
-1

> <PUBCHEM_COORDINATE_TYPE>
1
5
255

> <PUBCHEM_BONDANNOTATIONS>
1  34  8
1  37  8
11  35  8
11  37  8
15  22  3
17  26  3
28  29  8
28  30  8
29  31  8
21  3  3
30  32  8
31  33  8
32  33  8
34  35  8

$$$$
139594015
  -OEChem-04052116542D

 73 76  0     1  0  0  0  0  0999 V2000
    8.5991    0.2115    0.0000 O   0  0  0  0  0  0  0  0  0  0  0  0
    6.0010    1.7115    0.0000 O   0  0  0  0  0  0  0  0  0  0  0  0
    7.2331   -1.1545    0.0000 O   0  0  0  0  0  0  0  0  0  0  0  0
    7.7331    2.7115    0.0000 O   0  0  0  0  0  0  0  0  0  0  0  0
    6.0010   -0.2885    0.0000 O   0  0  0  0  0  0  0  0  0  0  0  0
   10.3312    1.2115    0.0000 O   0  0  0  0  0  0  0  0  0  0  0  0
    6.8671    3.2115    0.0000 O   0  0  0  0  0  0  0  0  0  0  0  0
    8.7331   -2.0205    0.0000 O   0  0  0  0  0  0  0  0  0  0  0  0
   11.1972    2.7115    0.0000 O   0  0  0  0  0  0  0  0  0  0  0  0
    2.5369    2.7115    0.0000 O   0  0  0  0  0  0  0  0  0  0  0  0
    4.2690    5.7115    0.0000 O   0  0  0  0  0  0  0  0  0  0  0  0
    7.7331   -5.4846    0.0000 O   0  0  0  0  0  0  0  0  0  0  0  0
    4.7331   -3.7526    0.0000 O   0  0  0  0  0  0  0  0  0  0  0  0
    2.5369    4.7115    0.0000 O   0  0  0  0  0  0  0  0  0  0  0  0
    5.7331   -5.4846    0.0000 O   0  0  0  0  0  0  0  0  0  0  0  0
   12.9292   -1.2885    0.0000 O   0  0  0  0  0  0  0  0  0  0  0  0
   14.6613    1.7115    0.0000 O   0  0  0  0  0  0  0  0  0  0  0  0
   14.6613   -0.2885    0.0000 O   0  0  0  0  0  0  0  0  0  0  0  0
    6.8671    1.2115    0.0000 C   0  0  1  0  0  0  0  0  0  0  0  0
    7.7331    1.7115    0.0000 C   0  0  1  0  0  0  0  0  0  0  0  0
    6.8671    0.2115    0.0000 C   0  0  2  0  0  0  0  0  0  0  0  0
    8.5991    1.2115    0.0000 C   0  0  1  0  0  0  0  0  0  0  0  0
    7.7331   -0.2885    0.0000 C   0  0  1  0  0  0  0  0  0  0  0  0
    9.4651    1.7115    0.0000 C   0  0  0  0  0  0  0  0  0  0  0  0
    8.2331   -1.1545    0.0000 C   0  0  0  0  0  0  0  0  0  0  0  0
    6.0010    2.7115    0.0000 C   0  0  0  0  0  0  0  0  0  0  0  0
    7.7331   -2.0205    0.0000 C   0  0  0  0  0  0  0  0  0  0  0  0
    9.2331   -1.1545    0.0000 C   0  0  0  0  0  0  0  0  0  0  0  0
    5.1350    3.2115    0.0000 C   0  0  0  0  0  0  0  0  0  0  0  0
   11.1972    1.7115    0.0000 C   0  0  0  0  0  0  0  0  0  0  0  0
    7.2331   -2.8865    0.0000 C   0  0  0  0  0  0  0  0  0  0  0  0
   12.0632    1.2115    0.0000 C   0  0  0  0  0  0  0  0  0  0  0  0
    5.1350    4.2115    0.0000 C   0  0  0  0  0  0  0  0  0  0  0  0
    4.2690    2.7115    0.0000 C   0  0  0  0  0  0  0  0  0  0  0  0
    6.2331   -2.8865    0.0000 C   0  0  0  0  0  0  0  0  0  0  0  0
    7.7331   -3.7526    0.0000 C   0  0  0  0  0  0  0  0  0  0  0  0
    3.4030    3.2115    0.0000 C   0  0  0  0  0  0  0  0  0  0  0  0
    4.2690    4.7115    0.0000 C   0  0  0  0  0  0  0  0  0  0  0  0
    7.2331   -4.6186    0.0000 C   0  0  0  0  0  0  0  0  0  0  0  0
    5.7331   -3.7526    0.0000 C   0  0  0  0  0  0  0  0  0  0  0  0
   12.9292    1.7115    0.0000 C   0  0  0  0  0  0  0  0  0  0  0  0
   12.0632    0.2115    0.0000 C   0  0  0  0  0  0  0  0  0  0  0  0
    3.4030    4.2115    0.0000 C   0  0  0  0  0  0  0  0  0  0  0  0
    6.2331   -4.6186    0.0000 C   0  0  0  0  0  0  0  0  0  0  0  0
   12.9292   -0.2885    0.0000 C   0  0  0  0  0  0  0  0  0  0  0  0
   13.7953    1.2115    0.0000 C   0  0  0  0  0  0  0  0  0  0  0  0
   13.7953    0.2115    0.0000 C   0  0  0  0  0  0  0  0  0  0  0  0
    6.8671    1.8315    0.0000 H   0  0  0  0  0  0  0  0  0  0  0  0
    8.2700    2.0215    0.0000 H   0  0  0  0  0  0  0  0  0  0  0  0
    6.3301    0.5215    0.0000 H   0  0  0  0  0  0  0  0  0  0  0  0
    9.1360    0.9015    0.0000 H   0  0  0  0  0  0  0  0  0  0  0  0
    9.8637    2.1865    0.0000 H   0  0  0  0  0  0  0  0  0  0  0  0
    9.0666    2.1865    0.0000 H   0  0  0  0  0  0  0  0  0  0  0  0
    7.9231   -1.6914    0.0000 H   0  0  0  0  0  0  0  0  0  0  0  0
    8.2700    3.0215    0.0000 H   0  0  0  0  0  0  0  0  0  0  0  0
    5.4641    0.0215    0.0000 H   0  0  0  0  0  0  0  0  0  0  0  0
    9.5431   -1.6914    0.0000 H   0  0  0  0  0  0  0  0  0  0  0  0
    9.5431   -0.6175    0.0000 H   0  0  0  0  0  0  0  0  0  0  0  0
    5.6720    4.5215    0.0000 H   0  0  0  0  0  0  0  0  0  0  0  0
    4.2690    2.0915    0.0000 H   0  0  0  0  0  0  0  0  0  0  0  0
    5.9231   -2.3496    0.0000 H   0  0  0  0  0  0  0  0  0  0  0  0
    8.3531   -3.7526    0.0000 H   0  0  0  0  0  0  0  0  0  0  0  0
   12.9292    2.3315    0.0000 H   0  0  0  0  0  0  0  0  0  0  0  0
   11.5263   -0.0985    0.0000 H   0  0  0  0  0  0  0  0  0  0  0  0
    2.0000    3.0215    0.0000 H   0  0  0  0  0  0  0  0  0  0  0  0
    4.8059    6.0215    0.0000 H   0  0  0  0  0  0  0  0  0  0  0  0
    8.3531   -5.4846    0.0000 H   0  0  0  0  0  0  0  0  0  0  0  0
    4.4231   -4.2895    0.0000 H   0  0  0  0  0  0  0  0  0  0  0  0
    2.5369    5.3315    0.0000 H   0  0  0  0  0  0  0  0  0  0  0  0
    6.0431   -6.0215    0.0000 H   0  0  0  0  0  0  0  0  0  0  0  0
   13.4662   -1.5985    0.0000 H   0  0  0  0  0  0  0  0  0  0  0  0
   14.6613    2.3315    0.0000 H   0  0  0  0  0  0  0  0  0  0  0  0
   15.1982    0.0215    0.0000 H   0  0  0  0  0  0  0  0  0  0  0  0
  1 22  1  0  0  0  0
  1 23  1  0  0  0  0
 19  2  1  1  0  0  0
  2 26  1  0  0  0  0
 23  3  1  1  0  0  0
  3 27  1  0  0  0  0
 20  4  1  6  0  0  0
  4 55  1  0  0  0  0
 21  5  1  6  0  0  0
  5 56  1  0  0  0  0
  6 24  1  0  0  0  0
  6 30  1  0  0  0  0
  7 26  2  0  0  0  0
  8 27  2  0  0  0  0
  9 30  2  0  0  0  0
 10 37  1  0  0  0  0
 10 65  1  0  0  0  0
 11 38  1  0  0  0  0
 11 66  1  0  0  0  0
 12 39  1  0  0  0  0
 12 67  1  0  0  0  0
 13 40  1  0  0  0  0
 13 68  1  0  0  0  0
 14 43  1  0  0  0  0
 14 69  1  0  0  0  0
 15 44  1  0  0  0  0
 15 70  1  0  0  0  0
 16 45  1  0  0  0  0
 16 71  1  0  0  0  0
 17 46  1  0  0  0  0
 17 72  1  0  0  0  0
 18 47  1  0  0  0  0
 18 73  1  0  0  0  0
 19 20  1  0  0  0  0
 19 21  1  0  0  0  0
 19 48  1  0  0  0  0
 20 22  1  0  0  0  0
 20 49  1  0  0  0  0
 21 23  1  0  0  0  0
 21 50  1  0  0  0  0
 22 24  1  1  0  0  0
 22 51  1  0  0  0  0
 23 25  1  0  0  0  0
 24 52  1  0  0  0  0
 24 53  1  0  0  0  0
 25 28  2  0  0  0  0
 25 54  1  0  0  0  0
 26 29  1  0  0  0  0
 27 31  1  0  0  0  0
 28 57  1  0  0  0  0
 28 58  1  0  0  0  0
 29 33  2  0  0  0  0
 29 34  1  0  0  0  0
 30 32  1  0  0  0  0
 31 35  2  0  0  0  0
 31 36  1  0  0  0  0
 32 41  2  0  0  0  0
 32 42  1  0  0  0  0
 33 38  1  0  0  0  0
 33 59  1  0  0  0  0
 34 37  2  0  0  0  0
 34 60  1  0  0  0  0
 35 40  1  0  0  0  0
 35 61  1  0  0  0  0
 36 39  2  0  0  0  0
 36 62  1  0  0  0  0
 37 43  1  0  0  0  0
 38 43  2  0  0  0  0
 39 44  1  0  0  0  0
 40 44  2  0  0  0  0
 41 46  1  0  0  0  0
 41 63  1  0  0  0  0
 42 45  2  0  0  0  0
 42 64  1  0  0  0  0
 45 47  1  0  0  0  0
 46 47  2  0  0  0  0
M  END
> <PUBCHEM_COMPOUND_CID>
139594015

> <PUBCHEM_COMPOUND_CANONICALIZED>
1

> <PUBCHEM_CACTVS_COMPLEXITY>
1100

> <PUBCHEM_CACTVS_HBOND_ACCEPTOR>
18

> <PUBCHEM_CACTVS_HBOND_DONOR>
11

> <PUBCHEM_CACTVS_ROTATABLE_BOND>
11

> <PUBCHEM_CACTVS_SUBSKEYS>
AAADceB4PgAAAAAAAAAAAAAAAAAAAAAAAAA0YMEAAAAAAAABUAAAGgAACAAADBSgmAIwDoAABgCIAiDSCAACAAAkIAAIiAEGiMgZNzKCNRqicQElwBUPuYfK7DzOIAABCAAAQABAAAIQAACAAAAAAAAAAA==

> <PUBCHEM_IUPAC_OPENEYE_NAME>
[(2R,3R,4S,5R,6S)-3,5-dihydroxy-4,6-bis[(3,4,5-trihydroxybenzoyl)oxy]-6-vinyl-tetrahydropyran-2-yl]methyl 3,4,5-trihydroxybenzoate

> <PUBCHEM_IUPAC_CAS_NAME>
3,4,5-trihydroxybenzoic acid [(2R,3R,4S,5R,6S)-6-ethenyl-3,5-dihydroxy-4,6-bis[oxo-(3,4,5-trihydroxyphenyl)methoxy]-2-oxanyl]methyl ester

> <PUBCHEM_IUPAC_NAME_MARKUP>
[(2<I>R</I>,3<I>R</I>,4<I>S</I>,5<I>R</I>,6<I>S</I>)-6-ethenyl-3,5-dihydroxy-4,6-bis[(3,4,5-trihydroxybenzoyl)oxy]oxan-2-yl]methyl 3,4,5-trihydroxybenzoate

> <PUBCHEM_IUPAC_NAME>
[(2R,3R,4S,5R,6S)-6-ethenyl-3,5-dihydroxy-4,6-bis[(3,4,5-trihydroxybenzoyl)oxy]oxan-2-yl]methyl 3,4,5-trihydroxybenzoate

> <PUBCHEM_IUPAC_SYSTEMATIC_NAME>
[(2R,3R,4S,5R,6S)-6-ethenyl-3,5-bis(oxidanyl)-4,6-bis[[3,4,5-tris(oxidanyl)phenyl]carbonyloxy]oxan-2-yl]methyl 3,4,5-tris(oxidanyl)benzoate

> <PUBCHEM_IUPAC_TRADITIONAL_NAME>
3,4,5-trihydroxybenzoic acid [(2R,3R,4S,5R,6S)-4,6-digalloyloxy-3,5-dihydroxy-6-vinyl-tetrahydropyran-2-yl]methyl ester

> <PUBCHEM_IUPAC_INCHI>
InChI=1S/C29H26O18/c1-2-29(47-28(43)12-7-17(34)22(38)18(35)8-12)25(40)24(45-27(42)11-5-15(32)21(37)16(33)6-11)23(39)19(46-29)9-44-26(41)10-3-13(30)20(36)14(31)4-10/h2-8,19,23-25,30-40H,1,9H2/t19-,23-,24+,25-,29+/m1/s1

> <PUBCHEM_IUPAC_INCHIKEY>
ZLWNYPPHHLEOAN-QLIKVZNYSA-N

> <PUBCHEM_XLOGP3_AA>
0.8

> <PUBCHEM_EXACT_MASS>
662.111914

> <PUBCHEM_MOLECULAR_FORMULA>
C29H26O18

> <PUBCHEM_MOLECULAR_WEIGHT>
662.5

> <PUBCHEM_OPENEYE_CAN_SMILES>
C=CC1(C(C(C(C(O1)COC(=O)C2=CC(=C(C(=C2)O)O)O)O)OC(=O)C3=CC(=C(C(=C3)O)O)O)O)OC(=O)C4=CC(=C(C(=C4)O)O)O

> <PUBCHEM_OPENEYE_ISO_SMILES>
C=C[C@@]1([C@@H]([C@H]([C@@H]([C@H](O1)COC(=O)C2=CC(=C(C(=C2)O)O)O)O)OC(=O)C3=CC(=C(C(=C3)O)O)O)O)OC(=O)C4=CC(=C(C(=C4)O)O)O

> <PUBCHEM_CACTVS_TPSA>
311

> <PUBCHEM_MONOISOTOPIC_WEIGHT>
662.111914

> <PUBCHEM_TOTAL_CHARGE>
0

> <PUBCHEM_HEAVY_ATOM_COUNT>
47

> <PUBCHEM_ATOM_DEF_STEREO_COUNT>
5

> <PUBCHEM_ATOM_UDEF_STEREO_COUNT>
0

> <PUBCHEM_BOND_DEF_STEREO_COUNT>
0

> <PUBCHEM_BOND_UDEF_STEREO_COUNT>
0

> <PUBCHEM_ISOTOPIC_ATOM_COUNT>
0

> <PUBCHEM_COMPONENT_COUNT>
1

> <PUBCHEM_CACTVS_TAUTO_COUNT>
-1

> <PUBCHEM_COORDINATE_TYPE>
1
5
255

> <PUBCHEM_BONDANNOTATIONS>
19  2  5
22  24  5
29  33  8
29  34  8
23  3  5
31  35  8
31  36  8
32  41  8
32  42  8
33  38  8
34  37  8
35  40  8
36  39  8
37  43  8
38  43  8
39  44  8
20  4  6
40  44  8
41  46  8
42  45  8
45  47  8
46  47  8
21  5  6

$$$$
139081110
  -OEChem-04052116542D

 30 33  0     0  0  0  0  0  0999 V2000
    2.0000   -0.3137    0.0000 F   0  0  0  0  0  0  0  0  0  0  0  0
    2.5000    0.5523    0.0000 F   0  0  0  0  0  0  0  0  0  0  0  0
    3.0000   -1.3137    0.0000 O   0  0  0  0  0  0  0  0  0  0  0  0
    3.8660    0.1863    0.0000 N   0  3  0  0  0  0  0  0  0  0  0  0
    4.7320   -0.3137    0.0000 C   0  0  0  0  0  0  0  0  0  0  0  0
    3.8500    1.2278    0.0000 C   0  0  0  0  0  0  0  0  0  0  0  0
    4.7320   -1.3137    0.0000 C   0  0  0  0  0  0  0  0  0  0  0  0
    4.7480    1.7555    0.0000 C   0  0  0  0  0  0  0  0  0  0  0  0
    3.8660   -1.8137    0.0000 C   0  0  0  0  0  0  0  0  0  0  0  0
    5.6420    0.1931    0.0000 C   0  0  0  0  0  0  0  0  0  0  0  0
    5.6501    1.2347    0.0000 C   0  0  0  0  0  0  0  0  0  0  0  0
    2.8980    1.7484    0.0000 C   0  0  0  0  0  0  0  0  0  0  0  0
    5.6420   -1.8206    0.0000 C   0  0  0  0  0  0  0  0  0  0  0  0
    4.7564    2.8405    0.0000 C   0  0  0  0  0  0  0  0  0  0  0  0
    3.8500   -2.8552    0.0000 C   0  0  0  0  0  0  0  0  0  0  0  0
    2.8813    2.8333    0.0000 C   0  0  0  0  0  0  0  0  0  0  0  0
    3.8167    3.3830    0.0000 C   0  0  0  0  0  0  0  0  0  0  0  0
    5.6501   -2.8622    0.0000 C   0  0  0  0  0  0  0  0  0  0  0  0
    4.7480   -3.3830    0.0000 C   0  0  0  0  0  0  0  0  0  0  0  0
    3.0000   -0.3137    0.0000 B   0  5  0  0  0  0  0  0  0  0  0  0
    6.1754   -0.1231    0.0000 H   0  0  0  0  0  0  0  0  0  0  0  0
    6.1882    1.5426    0.0000 H   0  0  0  0  0  0  0  0  0  0  0  0
    2.3672    1.4281    0.0000 H   0  0  0  0  0  0  0  0  0  0  0  0
    6.1754   -1.5044    0.0000 H   0  0  0  0  0  0  0  0  0  0  0  0
    5.2945    3.1484    0.0000 H   0  0  0  0  0  0  0  0  0  0  0  0
    3.3095   -3.1590    0.0000 H   0  0  0  0  0  0  0  0  0  0  0  0
    2.3408    3.1370    0.0000 H   0  0  0  0  0  0  0  0  0  0  0  0
    3.8143    4.0030    0.0000 H   0  0  0  0  0  0  0  0  0  0  0  0
    6.1882   -3.1701    0.0000 H   0  0  0  0  0  0  0  0  0  0  0  0
    4.7456   -4.0030    0.0000 H   0  0  0  0  0  0  0  0  0  0  0  0
  1 20  1  0  0  0  0
  2 20  1  0  0  0  0
  3  9  1  0  0  0  0
  3 20  1  0  0  0  0
  4  5  2  0  0  0  0
  4  6  1  0  0  0  0
  4 20  1  0  0  0  0
  5  7  1  0  0  0  0
  5 10  1  0  0  0  0
  6  8  1  0  0  0  0
  6 12  2  0  0  0  0
  7  9  1  0  0  0  0
  7 13  2  0  0  0  0
  8 11  1  0  0  0  0
  8 14  2  0  0  0  0
  9 15  2  0  0  0  0
 10 11  2  0  0  0  0
 10 21  1  0  0  0  0
 11 22  1  0  0  0  0
 12 16  1  0  0  0  0
 12 23  1  0  0  0  0
 13 18  1  0  0  0  0
 13 24  1  0  0  0  0
 14 17  1  0  0  0  0
 14 25  1  0  0  0  0
 15 19  1  0  0  0  0
 15 26  1  0  0  0  0
 16 17  2  0  0  0  0
 16 27  1  0  0  0  0
 17 28  1  0  0  0  0
 18 19  2  0  0  0  0
 18 29  1  0  0  0  0
 19 30  1  0  0  0  0
M  CHG  2   4   1  20  -1
M  END
> <PUBCHEM_COMPOUND_CID>
139081110

> <PUBCHEM_COMPOUND_CANONICALIZED>
1

> <PUBCHEM_CACTVS_COMPLEXITY>
381

> <PUBCHEM_CACTVS_HBOND_ACCEPTOR>
4

> <PUBCHEM_CACTVS_HBOND_DONOR>
0

> <PUBCHEM_CACTVS_ROTATABLE_BOND>
0

> <PUBCHEM_CACTVS_SUBSKEYS>
AAADccJyIYAAAAAAAAAAAAAAAAAAAAAAAAA8eIEAAAAAAACx9AAcHgAAAAAADAyBngAwxvIIEACgAyRiRACCgCAhIiAImCA2bJgIJuLAkZOEMAhmwBHIyAeQwOAOAAAAAAAKAAAAAAAAABQAAAAAAAAAAA==

> <PUBCHEM_IUPAC_OPENEYE_NAME>
18,18-difluoro-17-oxa-1-azonia-18-boranuidatetracyclo[8.8.0.02,7.011,16]octadeca-1(10),2,4,6,8,11,13,15-octaene

> <PUBCHEM_IUPAC_CAS_NAME>
18,18-difluoro-17-oxa-1-azonia-18-boranuidatetracyclo[8.8.0.02,7.011,16]octadeca-1(10),2,4,6,8,11,13,15-octaene

> <PUBCHEM_IUPAC_NAME_MARKUP>
18,18-difluoro-17-oxa-1-azonia-18-boranuidatetracyclo[8.8.0.0<SUP>2,7</SUP>.0<SUP>11,16</SUP>]octadeca-1(10),2,4,6,8,11,13,15-octaene

> <PUBCHEM_IUPAC_NAME>
18,18-difluoro-17-oxa-1-azonia-18-boranuidatetracyclo[8.8.0.02,7.011,16]octadeca-1(10),2,4,6,8,11,13,15-octaene

> <PUBCHEM_IUPAC_SYSTEMATIC_NAME>
18,18-bis(fluoranyl)-17-oxa-1-azonia-18-boranuidatetracyclo[8.8.0.02,7.011,16]octadeca-1(10),2,4,6,8,11,13,15-octaene

> <PUBCHEM_IUPAC_TRADITIONAL_NAME>
18,18-difluoro-17-oxa-1-azonia-18-boranuidatetracyclo[8.8.0.02,7.011,16]octadeca-1(10),2,4,6,8,11,13,15-octaene

> <PUBCHEM_IUPAC_INCHI>
InChI=1S/C15H10BF2NO/c17-16(18)19-13-7-3-1-5-11(13)9-10-14(19)12-6-2-4-8-15(12)20-16/h1-10H

> <PUBCHEM_IUPAC_INCHIKEY>
DCRRSJBJOBPKFD-UHFFFAOYSA-N

> <PUBCHEM_EXACT_MASS>
269.08235

> <PUBCHEM_MOLECULAR_FORMULA>
C15H10BF2NO

> <PUBCHEM_MOLECULAR_WEIGHT>
269.06

> <PUBCHEM_OPENEYE_CAN_SMILES>
[B-]1([N+]2=C(C=CC3=CC=CC=C32)C4=CC=CC=C4O1)(F)F

> <PUBCHEM_OPENEYE_ISO_SMILES>
[B-]1([N+]2=C(C=CC3=CC=CC=C32)C4=CC=CC=C4O1)(F)F

> <PUBCHEM_CACTVS_TPSA>
13.1

> <PUBCHEM_MONOISOTOPIC_WEIGHT>
269.08235

> <PUBCHEM_TOTAL_CHARGE>
0

> <PUBCHEM_HEAVY_ATOM_COUNT>
20

> <PUBCHEM_ATOM_DEF_STEREO_COUNT>
0

> <PUBCHEM_ATOM_UDEF_STEREO_COUNT>
0

> <PUBCHEM_BOND_DEF_STEREO_COUNT>
0

> <PUBCHEM_BOND_UDEF_STEREO_COUNT>
0

> <PUBCHEM_ISOTOPIC_ATOM_COUNT>
0

> <PUBCHEM_COMPONENT_COUNT>
1

> <PUBCHEM_CACTVS_TAUTO_COUNT>
-1

> <PUBCHEM_COORDINATE_TYPE>
1
5
255

> <PUBCHEM_BONDANNOTATIONS>
10  11  8
12  16  8
13  18  8
14  17  8
15  19  8
16  17  8
18  19  8
4  5  8
4  6  8
5  10  8
6  12  8
6  8  8
7  13  8
7  9  8
8  11  8
8  14  8
9  15  8

$$$$
137628614
  -OEChem-04052116542D

 70 73  0     1  0  0  0  0  0999 V2000
    3.4600    4.1272    0.0000 S   0  0  0  0  0  0  0  0  0  0  0  0
   10.3915    1.8076    0.0000 F   0  0  0  0  0  0  0  0  0  0  0  0
    7.4904   -4.5766    0.0000 O   0  0  0  0  0  0  0  0  0  0  0  0
    9.9757   -0.1487    0.0000 O   0  0  0  0  0  0  0  0  0  0  0  0
    6.3793   -0.4066    0.0000 O   0  0  0  0  0  0  0  0  0  0  0  0
    4.2690   -2.4606    0.0000 O   0  0  0  0  0  0  0  0  0  0  0  0
    2.5369    0.5394    0.0000 O   0  0  0  0  0  0  0  0  0  0  0  0
    6.9146   -2.0539    0.0000 N   0  0  0  0  0  0  0  0  0  0  0  0
    8.2815    0.2114    0.0000 N   0  0  0  0  0  0  0  0  0  0  0  0
    5.1350   -0.9606    0.0000 N   0  0  0  0  0  0  0  0  0  0  0  0
    4.7690    5.0782    0.0000 N   0  0  0  0  0  0  0  0  0  0  0  0
    9.4404    1.4986    0.0000 C   0  0  0  0  0  0  0  0  0  0  0  0
    9.1314    2.4496    0.0000 C   0  0  0  0  0  0  0  0  0  0  0  0
    8.4623    1.7065    0.0000 C   0  0  0  0  0  0  0  0  0  0  0  0
    8.0735   -0.7667    0.0000 C   0  0  1  0  0  0  0  0  0  0  0  0
    8.8167   -1.4359    0.0000 C   0  0  0  0  0  0  0  0  0  0  0  0
    6.0010   -2.4606    0.0000 C   0  0  1  0  0  0  0  0  0  0  0  0
    9.2325    0.5204    0.0000 C   0  0  0  0  0  0  0  0  0  0  0  0
    6.1056   -3.4552    0.0000 C   0  0  0  0  0  0  0  0  0  0  0  0
    7.5837   -2.7970    0.0000 C   0  0  0  0  0  0  0  0  0  0  0  0
    7.0837   -3.6631    0.0000 C   0  0  2  0  0  0  0  0  0  0  0  0
    7.1225   -1.0758    0.0000 C   0  0  0  0  0  0  0  0  0  0  0  0
    9.5598   -2.1050    0.0000 C   0  0  0  0  0  0  0  0  0  0  0  0
    9.4858   -0.6927    0.0000 C   0  0  0  0  0  0  0  0  0  0  0  0
    8.1476   -2.1790    0.0000 C   0  0  0  0  0  0  0  0  0  0  0  0
    5.1350   -1.9606    0.0000 C   0  0  0  0  0  0  0  0  0  0  0  0
    4.2690   -0.4606    0.0000 C   0  0  0  0  0  0  0  0  0  0  0  0
    4.2690    0.5394    0.0000 C   0  0  0  0  0  0  0  0  0  0  0  0
    3.4030    1.0394    0.0000 C   0  0  0  0  0  0  0  0  0  0  0  0
    5.1350    1.0394    0.0000 C   0  0  0  0  0  0  0  0  0  0  0  0
    3.4030    2.0394    0.0000 C   0  0  0  0  0  0  0  0  0  0  0  0
    5.1350    2.0394    0.0000 C   0  0  0  0  0  0  0  0  0  0  0  0
    4.2690    2.5394    0.0000 C   0  0  0  0  0  0  0  0  0  0  0  0
    4.2690    3.5394    0.0000 C   0  0  0  0  0  0  0  0  0  0  0  0
    5.0780    4.1272    0.0000 C   0  0  0  0  0  0  0  0  0  0  0  0
    6.0291    3.8181    0.0000 C   0  0  0  0  0  0  0  0  0  0  0  0
    3.7690    5.0782    0.0000 C   0  0  0  0  0  0  0  0  0  0  0  0
    9.6788    2.7407    0.0000 H   0  0  0  0  0  0  0  0  0  0  0  0
    8.7497    2.9382    0.0000 H   0  0  0  0  0  0  0  0  0  0  0  0
    7.9365    2.0350    0.0000 H   0  0  0  0  0  0  0  0  0  0  0  0
    8.2300    1.1316    0.0000 H   0  0  0  0  0  0  0  0  0  0  0  0
    8.6632   -0.5751    0.0000 H   0  0  0  0  0  0  0  0  0  0  0  0
    6.0335   -1.8415    0.0000 H   0  0  0  0  0  0  0  0  0  0  0  0
    5.4856   -3.4552    0.0000 H   0  0  0  0  0  0  0  0  0  0  0  0
    6.0408   -4.0718    0.0000 H   0  0  0  0  0  0  0  0  0  0  0  0
    8.0853   -3.1615    0.0000 H   0  0  0  0  0  0  0  0  0  0  0  0
    7.9986   -2.3363    0.0000 H   0  0  0  0  0  0  0  0  0  0  0  0
    7.7029   -3.6955    0.0000 H   0  0  0  0  0  0  0  0  0  0  0  0
    7.8207    0.6263    0.0000 H   0  0  0  0  0  0  0  0  0  0  0  0
    7.6868   -1.7642    0.0000 H   0  0  0  0  0  0  0  0  0  0  0  0
    7.7327   -2.6398    0.0000 H   0  0  0  0  0  0  0  0  0  0  0  0
    8.6083   -2.5939    0.0000 H   0  0  0  0  0  0  0  0  0  0  0  0
    9.9466   -1.1076    0.0000 H   0  0  0  0  0  0  0  0  0  0  0  0
    9.9007   -0.2320    0.0000 H   0  0  0  0  0  0  0  0  0  0  0  0
    9.0251   -0.2779    0.0000 H   0  0  0  0  0  0  0  0  0  0  0  0
    9.1450   -2.5658    0.0000 H   0  0  0  0  0  0  0  0  0  0  0  0
   10.0206   -2.5199    0.0000 H   0  0  0  0  0  0  0  0  0  0  0  0
    9.9747   -1.6442    0.0000 H   0  0  0  0  0  0  0  0  0  0  0  0
    7.1260   -5.0782    0.0000 H   0  0  0  0  0  0  0  0  0  0  0  0
    5.6720   -0.6506    0.0000 H   0  0  0  0  0  0  0  0  0  0  0  0
    3.6584   -0.3530    0.0000 H   0  0  0  0  0  0  0  0  0  0  0  0
    4.0569   -1.0432    0.0000 H   0  0  0  0  0  0  0  0  0  0  0  0
    5.6720    0.7294    0.0000 H   0  0  0  0  0  0  0  0  0  0  0  0
    2.8660    2.3494    0.0000 H   0  0  0  0  0  0  0  0  0  0  0  0
    5.6720    2.3494    0.0000 H   0  0  0  0  0  0  0  0  0  0  0  0
    2.0000    0.8494    0.0000 H   0  0  0  0  0  0  0  0  0  0  0  0
    5.8375    3.2285    0.0000 H   0  0  0  0  0  0  0  0  0  0  0  0
    6.6187    3.6265    0.0000 H   0  0  0  0  0  0  0  0  0  0  0  0
    6.2206    4.4078    0.0000 H   0  0  0  0  0  0  0  0  0  0  0  0
    3.4046    5.5798    0.0000 H   0  0  0  0  0  0  0  0  0  0  0  0
  1 34  1  0  0  0  0
  1 37  1  0  0  0  0
  2 12  1  0  0  0  0
 21  3  1  6  0  0  0
  3 59  1  0  0  0  0
  4 18  2  0  0  0  0
  5 22  2  0  0  0  0
  6 26  2  0  0  0  0
  7 29  1  0  0  0  0
  7 66  1  0  0  0  0
  8 17  1  0  0  0  0
  8 20  1  0  0  0  0
  8 22  1  0  0  0  0
 15  9  1  1  0  0  0
  9 18  1  0  0  0  0
  9 49  1  0  0  0  0
 10 26  1  0  0  0  0
 10 27  1  0  0  0  0
 10 60  1  0  0  0  0
 11 35  1  0  0  0  0
 11 37  2  0  0  0  0
 12 13  1  0  0  0  0
 12 14  1  0  0  0  0
 12 18  1  0  0  0  0
 13 14  1  0  0  0  0
 13 38  1  0  0  0  0
 13 39  1  0  0  0  0
 14 40  1  0  0  0  0
 14 41  1  0  0  0  0
 15 16  1  0  0  0  0
 15 22  1  0  0  0  0
 15 42  1  0  0  0  0
 16 23  1  0  0  0  0
 16 24  1  0  0  0  0
 16 25  1  0  0  0  0
 17 19  1  0  0  0  0
 17 26  1  1  0  0  0
 17 43  1  0  0  0  0
 19 21  1  0  0  0  0
 19 44  1  0  0  0  0
 19 45  1  0  0  0  0
 20 21  1  0  0  0  0
 20 46  1  0  0  0  0
 20 47  1  0  0  0  0
 21 48  1  0  0  0  0
 23 56  1  0  0  0  0
 23 57  1  0  0  0  0
 23 58  1  0  0  0  0
 24 53  1  0  0  0  0
 24 54  1  0  0  0  0
 24 55  1  0  0  0  0
 25 50  1  0  0  0  0
 25 51  1  0  0  0  0
 25 52  1  0  0  0  0
 27 28  1  0  0  0  0
 27 61  1  0  0  0  0
 27 62  1  0  0  0  0
 28 29  2  0  0  0  0
 28 30  1  0  0  0  0
 29 31  1  0  0  0  0
 30 32  2  0  0  0  0
 30 63  1  0  0  0  0
 31 33  2  0  0  0  0
 31 64  1  0  0  0  0
 32 33  1  0  0  0  0
 32 65  1  0  0  0  0
 33 34  1  0  0  0  0
 34 35  2  0  0  0  0
 35 36  1  0  0  0  0
 36 67  1  0  0  0  0
 36 68  1  0  0  0  0
 36 69  1  0  0  0  0
 37 70  1  0  0  0  0
M  END
> <PUBCHEM_COMPOUND_CID>
137628614

> <PUBCHEM_COMPOUND_CANONICALIZED>
1

> <PUBCHEM_CACTVS_COMPLEXITY>
882

> <PUBCHEM_CACTVS_HBOND_ACCEPTOR>
8

> <PUBCHEM_CACTVS_HBOND_DONOR>
4

> <PUBCHEM_CACTVS_ROTATABLE_BOND>
8

> <PUBCHEM_CACTVS_SUBSKEYS>
AAADcfB7uQBAAAAAAAAAAAAAGAAAAWLAAAAwAAAAAAAAAAABwAAAHwQQCAAADjzh3ga2h5PIEgisAyVzVACC8KBxKDgI2JW+TIgKdjLikTOUcAhm1hHY2Ae60fMPQAABAAAIAACAAAIAABAAAAAAAAAAAA==

> <PUBCHEM_IUPAC_OPENEYE_NAME>
(2S,4R)-1-[(2S)-2-[(1-fluorocyclopropanecarbonyl)amino]-3,3-dimethyl-butanoyl]-4-hydroxy-N-[[2-hydroxy-4-(4-methylthiazol-5-yl)phenyl]methyl]pyrrolidine-2-carboxamide

> <PUBCHEM_IUPAC_CAS_NAME>
(2S,4R)-1-[(2S)-2-[[(1-fluorocyclopropyl)-oxomethyl]amino]-3,3-dimethyl-1-oxobutyl]-4-hydroxy-N-[[2-hydroxy-4-(4-methyl-5-thiazolyl)phenyl]methyl]-2-pyrrolidinecarboxamide

> <PUBCHEM_IUPAC_NAME_MARKUP>
(2<I>S</I>,4<I>R</I>)-1-[(2<I>S</I>)-2-[(1-fluorocyclopropanecarbonyl)amino]-3,3-dimethylbutanoyl]-4-hydroxy-<I>N</I>-[[2-hydroxy-4-(4-methyl-1,3-thiazol-5-yl)phenyl]methyl]pyrrolidine-2-carboxamide

> <PUBCHEM_IUPAC_NAME>
(2S,4R)-1-[(2S)-2-[(1-fluorocyclopropanecarbonyl)amino]-3,3-dimethylbutanoyl]-4-hydroxy-N-[[2-hydroxy-4-(4-methyl-1,3-thiazol-5-yl)phenyl]methyl]pyrrolidine-2-carboxamide

> <PUBCHEM_IUPAC_SYSTEMATIC_NAME>
(2S,4R)-1-[(2S)-2-[(1-fluoranylcyclopropyl)carbonylamino]-3,3-dimethyl-butanoyl]-N-[[4-(4-methyl-1,3-thiazol-5-yl)-2-oxidanyl-phenyl]methyl]-4-oxidanyl-pyrrolidine-2-carboxamide

> <PUBCHEM_IUPAC_TRADITIONAL_NAME>
(2S,4R)-1-[(2S)-2-[(1-fluorocyclopropanecarbonyl)amino]-3,3-dimethyl-butanoyl]-4-hydroxy-N-[2-hydroxy-4-(4-methylthiazol-5-yl)benzyl]pyrrolidine-2-carboxamide

> <PUBCHEM_IUPAC_INCHI>
InChI=1S/C26H33FN4O5S/c1-14-20(37-13-29-14)15-5-6-16(19(33)9-15)11-28-22(34)18-10-17(32)12-31(18)23(35)21(25(2,3)4)30-24(36)26(27)7-8-26/h5-6,9,13,17-18,21,32-33H,7-8,10-12H2,1-4H3,(H,28,34)(H,30,36)/t17-,18+,21-/m1/s1

> <PUBCHEM_IUPAC_INCHIKEY>
OKBLHQUBMCCFKE-LVCYWYKZSA-N

> <PUBCHEM_XLOGP3_AA>
3.2

> <PUBCHEM_EXACT_MASS>
532.21557

> <PUBCHEM_MOLECULAR_FORMULA>
C26H33FN4O5S

> <PUBCHEM_MOLECULAR_WEIGHT>
532.6

> <PUBCHEM_OPENEYE_CAN_SMILES>
CC1=C(SC=N1)C2=CC(=C(C=C2)CNC(=O)C3CC(CN3C(=O)C(C(C)(C)C)NC(=O)C4(CC4)F)O)O

> <PUBCHEM_OPENEYE_ISO_SMILES>
CC1=C(SC=N1)C2=CC(=C(C=C2)CNC(=O)[C@@H]3C[C@H](CN3C(=O)[C@H](C(C)(C)C)NC(=O)C4(CC4)F)O)O

> <PUBCHEM_CACTVS_TPSA>
160

> <PUBCHEM_MONOISOTOPIC_WEIGHT>
532.21557

> <PUBCHEM_TOTAL_CHARGE>
0

> <PUBCHEM_HEAVY_ATOM_COUNT>
37

> <PUBCHEM_ATOM_DEF_STEREO_COUNT>
3

> <PUBCHEM_ATOM_UDEF_STEREO_COUNT>
0

> <PUBCHEM_BOND_DEF_STEREO_COUNT>
0

> <PUBCHEM_BOND_UDEF_STEREO_COUNT>
0

> <PUBCHEM_ISOTOPIC_ATOM_COUNT>
0

> <PUBCHEM_COMPONENT_COUNT>
1

> <PUBCHEM_CACTVS_TAUTO_COUNT>
-1

> <PUBCHEM_COORDINATE_TYPE>
1
5
255

> <PUBCHEM_BONDANNOTATIONS>
1  34  8
1  37  8
11  35  8
11  37  8
17  26  5
28  29  8
28  30  8
29  31  8
21  3  6
30  32  8
31  33  8
32  33  8
34  35  8
15  9  5

$$$$
132277260
  -OEChem-04052116542D

 74 78  0     1  0  0  0  0  0999 V2000
    7.7331    2.7287    0.0000 Cl  0  0  0  0  0  0  0  0  0  0  0  0
    8.5996    0.2287    0.0000 O   0  0  0  0  0  0  0  0  0  0  0  0
    6.8671   -0.7713    0.0000 O   0  0  0  0  0  0  0  0  0  0  0  0
    6.2243    1.9948    0.0000 O   0  0  0  0  0  0  0  0  0  0  0  0
    8.2331    1.5948    0.0000 O   0  0  0  0  0  0  0  0  0  0  0  0
    7.7331   -1.2713    0.0000 O   0  0  0  0  0  0  0  0  0  0  0  0
    5.1350    1.2287    0.0000 O   0  0  0  0  0  0  0  0  0  0  0  0
    5.1350   -1.7713    0.0000 O   0  0  0  0  0  0  0  0  0  0  0  0
    7.2091    3.7005    0.0000 O   0  0  0  0  0  0  0  0  0  0  0  0
    9.4651   -1.2713    0.0000 O   0  0  0  0  0  0  0  0  0  0  0  0
    3.4030   -1.7713    0.0000 O   0  0  0  0  0  0  0  0  0  0  0  0
    3.3111    4.1193    0.0000 O   0  0  0  0  0  0  0  0  0  0  0  0
    5.9648    6.3460    0.0000 O   0  0  0  0  0  0  0  0  0  0  0  0
   10.3312   -4.7713    0.0000 O   0  0  0  0  0  0  0  0  0  0  0  0
    6.8671   -4.7713    0.0000 O   0  0  0  0  0  0  0  0  0  0  0  0
    3.9951    5.9986    0.0000 O   0  0  0  0  0  0  0  0  0  0  0  0
    8.5991   -5.7713    0.0000 O   0  0  0  0  0  0  0  0  0  0  0  0
    6.0010   -5.2713    0.0000 O   0  0  0  0  0  0  0  0  0  0  0  0
    2.5369   -5.2713    0.0000 O   0  0  0  0  0  0  0  0  0  0  0  0
    4.2690   -6.2713    0.0000 O   0  0  0  0  0  0  0  0  0  0  0  0
    7.7331    0.7287    0.0000 C   0  0  2  0  0  0  0  0  0  0  0  0
    6.8671    1.2287    0.0000 C   0  0  2  0  0  0  0  0  0  0  0  0
    7.7331   -0.2713    0.0000 C   0  0  2  0  0  0  0  0  0  0  0  0
    6.0010    0.7287    0.0000 C   0  0  1  0  0  0  0  0  0  0  0  0
    6.0010   -0.2713    0.0000 C   0  0  1  0  0  0  0  0  0  0  0  0
    6.8671    2.2287    0.0000 C   0  0  3  0  0  0  0  0  0  0  0  0
    5.1350   -0.7713    0.0000 C   0  0  0  0  0  0  0  0  0  0  0  0
    6.0010    2.7287    0.0000 C   0  0  0  0  0  0  0  0  0  0  0  0
    6.5663    2.9345    0.0000 C   0  0  0  0  0  0  0  0  0  0  0  0
    8.5991   -1.7713    0.0000 C   0  0  0  0  0  0  0  0  0  0  0  0
    5.9235    3.7005    0.0000 C   0  0  0  0  0  0  0  0  0  0  0  0
    8.5991   -2.7713    0.0000 C   0  0  0  0  0  0  0  0  0  0  0  0
    4.2690   -2.2713    0.0000 C   0  0  0  0  0  0  0  0  0  0  0  0
    6.2655    4.6402    0.0000 C   0  0  0  0  0  0  0  0  0  0  0  0
    4.9387    3.5269    0.0000 C   0  0  0  0  0  0  0  0  0  0  0  0
    7.7331   -3.2713    0.0000 C   0  0  0  0  0  0  0  0  0  0  0  0
    9.4651   -3.2713    0.0000 C   0  0  0  0  0  0  0  0  0  0  0  0
    4.2690   -3.2713    0.0000 C   0  0  0  0  0  0  0  0  0  0  0  0
    4.2959    4.2929    0.0000 C   0  0  0  0  0  0  0  0  0  0  0  0
    5.6227    5.4063    0.0000 C   0  0  0  0  0  0  0  0  0  0  0  0
    9.4651   -4.2713    0.0000 C   0  0  0  0  0  0  0  0  0  0  0  0
    7.7331   -4.2713    0.0000 C   0  0  0  0  0  0  0  0  0  0  0  0
    4.6379    5.2326    0.0000 C   0  0  0  0  0  0  0  0  0  0  0  0
    8.5991   -4.7713    0.0000 C   0  0  0  0  0  0  0  0  0  0  0  0
    3.4030   -3.7713    0.0000 C   0  0  0  0  0  0  0  0  0  0  0  0
    5.1350   -3.7713    0.0000 C   0  0  0  0  0  0  0  0  0  0  0  0
    5.1350   -4.7713    0.0000 C   0  0  0  0  0  0  0  0  0  0  0  0
    3.4030   -4.7713    0.0000 C   0  0  0  0  0  0  0  0  0  0  0  0
    4.2690   -5.2713    0.0000 C   0  0  0  0  0  0  0  0  0  0  0  0
    5.4641    0.4187    0.0000 H   0  0  0  0  0  0  0  0  0  0  0  0
    6.0010   -0.8913    0.0000 H   0  0  0  0  0  0  0  0  0  0  0  0
    7.4040    1.9187    0.0000 H   0  0  0  0  0  0  0  0  0  0  0  0
    7.9231    2.1317    0.0000 H   0  0  0  0  0  0  0  0  0  0  0  0
    4.9230   -0.1887    0.0000 H   0  0  0  0  0  0  0  0  0  0  0  0
    4.5244   -0.8789    0.0000 H   0  0  0  0  0  0  0  0  0  0  0  0
    6.3110    3.2657    0.0000 H   0  0  0  0  0  0  0  0  0  0  0  0
    5.4641    3.0387    0.0000 H   0  0  0  0  0  0  0  0  0  0  0  0
    5.6910    2.1918    0.0000 H   0  0  0  0  0  0  0  0  0  0  0  0
    4.5981    0.9187    0.0000 H   0  0  0  0  0  0  0  0  0  0  0  0
    6.8761    4.7479    0.0000 H   0  0  0  0  0  0  0  0  0  0  0  0
    4.7266    2.9443    0.0000 H   0  0  0  0  0  0  0  0  0  0  0  0
    7.1962   -2.9613    0.0000 H   0  0  0  0  0  0  0  0  0  0  0  0
   10.0021   -2.9613    0.0000 H   0  0  0  0  0  0  0  0  0  0  0  0
    2.8660   -3.4613    0.0000 H   0  0  0  0  0  0  0  0  0  0  0  0
    5.6720   -3.4613    0.0000 H   0  0  0  0  0  0  0  0  0  0  0  0
    2.9126    4.5942    0.0000 H   0  0  0  0  0  0  0  0  0  0  0  0
    6.5753    6.4536    0.0000 H   0  0  0  0  0  0  0  0  0  0  0  0
   10.8681   -4.4613    0.0000 H   0  0  0  0  0  0  0  0  0  0  0  0
    6.8671   -5.3913    0.0000 H   0  0  0  0  0  0  0  0  0  0  0  0
    4.2072    6.5813    0.0000 H   0  0  0  0  0  0  0  0  0  0  0  0
    9.1360   -6.0813    0.0000 H   0  0  0  0  0  0  0  0  0  0  0  0
    6.0010   -5.8913    0.0000 H   0  0  0  0  0  0  0  0  0  0  0  0
    2.0000   -4.9613    0.0000 H   0  0  0  0  0  0  0  0  0  0  0  0
    3.7320   -6.5813    0.0000 H   0  0  0  0  0  0  0  0  0  0  0  0
  1 26  1  0  0  0  0
  2 21  1  0  0  0  0
  2 23  1  0  0  0  0
  3 23  1  0  0  0  0
  3 25  1  0  0  0  0
 22  4  1  6  0  0  0
  4 29  1  0  0  0  0
 21  5  1  6  0  0  0
  5 53  1  0  0  0  0
 23  6  1  6  0  0  0
  6 30  1  0  0  0  0
 24  7  1  1  0  0  0
  7 59  1  0  0  0  0
  8 27  1  0  0  0  0
  8 33  1  0  0  0  0
  9 29  2  0  0  0  0
 10 30  2  0  0  0  0
 11 33  2  0  0  0  0
 12 39  1  0  0  0  0
 12 66  1  0  0  0  0
 13 40  1  0  0  0  0
 13 67  1  0  0  0  0
 14 41  1  0  0  0  0
 14 68  1  0  0  0  0
 15 42  1  0  0  0  0
 15 69  1  0  0  0  0
 16 43  1  0  0  0  0
 16 70  1  0  0  0  0
 17 44  1  0  0  0  0
 17 71  1  0  0  0  0
 18 47  1  0  0  0  0
 18 72  1  0  0  0  0
 19 48  1  0  0  0  0
 19 73  1  0  0  0  0
 20 49  1  0  0  0  0
 20 74  1  0  0  0  0
 21 22  1  0  0  0  0
 21 23  1  0  0  0  0
 22 24  1  0  0  0  0
 22 26  1  0  0  0  0
 24 25  1  0  0  0  0
 24 50  1  0  0  0  0
 25 27  1  6  0  0  0
 25 51  1  0  0  0  0
 26 28  1  0  0  0  0
 26 52  1  0  0  0  0
 27 54  1  0  0  0  0
 27 55  1  0  0  0  0
 28 56  1  0  0  0  0
 28 57  1  0  0  0  0
 28 58  1  0  0  0  0
 29 31  1  0  0  0  0
 30 32  1  0  0  0  0
 31 34  2  0  0  0  0
 31 35  1  0  0  0  0
 32 36  2  0  0  0  0
 32 37  1  0  0  0  0
 33 38  1  0  0  0  0
 34 40  1  0  0  0  0
 34 60  1  0  0  0  0
 35 39  2  0  0  0  0
 35 61  1  0  0  0  0
 36 42  1  0  0  0  0
 36 62  1  0  0  0  0
 37 41  2  0  0  0  0
 37 63  1  0  0  0  0
 38 45  2  0  0  0  0
 38 46  1  0  0  0  0
 39 43  1  0  0  0  0
 40 43  2  0  0  0  0
 41 44  1  0  0  0  0
 42 44  2  0  0  0  0
 45 48  1  0  0  0  0
 45 64  1  0  0  0  0
 46 47  2  0  0  0  0
 46 65  1  0  0  0  0
 47 49  1  0  0  0  0
 48 49  2  0  0  0  0
M  END
> <PUBCHEM_COMPOUND_CID>
132277260

> <PUBCHEM_COMPOUND_CANONICALIZED>
1

> <PUBCHEM_CACTVS_COMPLEXITY>
1220

> <PUBCHEM_CACTVS_HBOND_ACCEPTOR>
19

> <PUBCHEM_CACTVS_HBOND_DONOR>
11

> <PUBCHEM_CACTVS_ROTATABLE_BOND>
11

> <PUBCHEM_CACTVS_SUBSKEYS>
AAADceB4PgAEAAAAAAAAAAAAEgAAAAAAAAA0YMEABIAAAAABUAAAGgIACAAADFegmEIyDoAABgCIAiDSCAACAAAkIAAAiAEGi8gZNzKDNRqicQElwBUPuYfK7DzOIAABCAAAQABAAAIQAACAAAAAAAAAAA==

> <PUBCHEM_IUPAC_OPENEYE_NAME>
[(1S,3R,4R,5S,6R)-5-(1-chloroethyl)-4,6-dihydroxy-1,5-bis[(3,4,5-trihydroxybenzoyl)oxy]-2,7-dioxabicyclo[4.1.0]heptan-3-yl]methyl 3,4,5-trihydroxybenzoate

> <PUBCHEM_IUPAC_CAS_NAME>
3,4,5-trihydroxybenzoic acid [(1S,3R,4R,5S,6R)-5-(1-chloroethyl)-4,6-dihydroxy-1,5-bis[oxo-(3,4,5-trihydroxyphenyl)methoxy]-2,7-dioxabicyclo[4.1.0]heptan-3-yl]methyl ester

> <PUBCHEM_IUPAC_NAME_MARKUP>
[(1<I>S</I>,3<I>R</I>,4<I>R</I>,5<I>S</I>,6<I>R</I>)-5-(1-chloroethyl)-4,6-dihydroxy-1,5-bis[(3,4,5-trihydroxybenzoyl)oxy]-2,7-dioxabicyclo[4.1.0]heptan-3-yl]methyl 3,4,5-trihydroxybenzoate

> <PUBCHEM_IUPAC_NAME>
[(1S,3R,4R,5S,6R)-5-(1-chloroethyl)-4,6-dihydroxy-1,5-bis[(3,4,5-trihydroxybenzoyl)oxy]-2,7-dioxabicyclo[4.1.0]heptan-3-yl]methyl 3,4,5-trihydroxybenzoate

> <PUBCHEM_IUPAC_SYSTEMATIC_NAME>
[(1S,3R,4R,5S,6R)-5-(1-chloroethyl)-4,6-bis(oxidanyl)-1,5-bis[[3,4,5-tris(oxidanyl)phenyl]carbonyloxy]-2,7-dioxabicyclo[4.1.0]heptan-3-yl]methyl 3,4,5-tris(oxidanyl)benzoate

> <PUBCHEM_IUPAC_TRADITIONAL_NAME>
3,4,5-trihydroxybenzoic acid [(1S,3R,4R,5S,6R)-5-(1-chloroethyl)-1,5-digalloyloxy-4,6-dihydroxy-2,7-dioxabicyclo[4.1.0]heptan-3-yl]methyl ester

> <PUBCHEM_IUPAC_INCHI>
InChI=1S/C29H25ClO19/c1-9(30)27(47-25(42)11-4-15(33)21(38)16(34)5-11)23(40)19(8-45-24(41)10-2-13(31)20(37)14(32)3-10)46-29(28(27,44)49-29)48-26(43)12-6-17(35)22(39)18(36)7-12/h2-7,9,19,23,31-40,44H,8H2,1H3/t9?,19-,23-,27+,28-,29-/m1/s1

> <PUBCHEM_IUPAC_INCHIKEY>
ALIMIXQSYMXBHB-DFECCOAFSA-N

> <PUBCHEM_XLOGP3_AA>
0.7

> <PUBCHEM_EXACT_MASS>
712.067856

> <PUBCHEM_MOLECULAR_FORMULA>
C29H25ClO19

> <PUBCHEM_MOLECULAR_WEIGHT>
712.9

> <PUBCHEM_OPENEYE_CAN_SMILES>
CC(C1(C(C(OC2(C1(O2)O)OC(=O)C3=CC(=C(C(=C3)O)O)O)COC(=O)C4=CC(=C(C(=C4)O)O)O)O)OC(=O)C5=CC(=C(C(=C5)O)O)O)Cl

> <PUBCHEM_OPENEYE_ISO_SMILES>
CC([C@@]1([C@@H]([C@H](O[C@]2([C@@]1(O2)O)OC(=O)C3=CC(=C(C(=C3)O)O)O)COC(=O)C4=CC(=C(C(=C4)O)O)O)O)OC(=O)C5=CC(=C(C(=C5)O)O)O)Cl

> <PUBCHEM_CACTVS_TPSA>
323

> <PUBCHEM_MONOISOTOPIC_WEIGHT>
712.067856

> <PUBCHEM_TOTAL_CHARGE>
0

> <PUBCHEM_HEAVY_ATOM_COUNT>
49

> <PUBCHEM_ATOM_DEF_STEREO_COUNT>
5

> <PUBCHEM_ATOM_UDEF_STEREO_COUNT>
1

> <PUBCHEM_BOND_DEF_STEREO_COUNT>
0

> <PUBCHEM_BOND_UDEF_STEREO_COUNT>
0

> <PUBCHEM_ISOTOPIC_ATOM_COUNT>
0

> <PUBCHEM_COMPONENT_COUNT>
1

> <PUBCHEM_CACTVS_TAUTO_COUNT>
-1

> <PUBCHEM_COORDINATE_TYPE>
1
5
255

> <PUBCHEM_BONDANNOTATIONS>
26  1  3
25  27  6
31  34  8
31  35  8
32  36  8
32  37  8
34  40  8
35  39  8
36  42  8
37  41  8
38  45  8
38  46  8
39  43  8
22  4  6
40  43  8
41  44  8
42  44  8
45  48  8
46  47  8
47  49  8
48  49  8
21  5  6
23  6  6
24  7  5

$$$$
131698499
  -OEChem-04052116542D

 39 36  0     0  0  0  0  0  0999 V2000
    1.4030    6.1635    0.0000 O   0  0  0  0  0  0  0  0  0  0  0  0
    5.2244    0.0000    0.0000 O   0  0  0  0  0  0  0  0  0  0  0  0
    1.4030    3.1635    0.0000 C   0  0  0  0  0  0  0  0  0  0  0  0
    1.4030    2.1635    0.0000 C   0  0  0  0  0  0  0  0  0  0  0  0
    0.5369    3.6635    0.0000 C   0  0  0  0  0  0  0  0  0  0  0  0
    2.2690    3.6635    0.0000 C   0  0  0  0  0  0  0  0  0  0  0  0
    0.5369    1.6635    0.0000 C   0  0  0  0  0  0  0  0  0  0  0  0
    0.5369    4.6635    0.0000 C   0  0  0  0  0  0  0  0  0  0  0  0
    2.2690    4.6635    0.0000 C   0  0  0  0  0  0  0  0  0  0  0  0
    1.4030    5.1635    0.0000 C   0  0  0  0  0  0  0  0  0  0  0  0
    6.4259    6.9800    0.0000 C   0  0  0  0  0  0  0  0  0  0  0  0
    5.4259    6.9800    0.0000 C   0  0  0  0  0  0  0  0  0  0  0  0
    6.4259    3.7400    0.0000 C   0  0  0  0  0  0  0  0  0  0  0  0
    5.4259    3.7400    0.0000 C   0  0  0  0  0  0  0  0  0  0  0  0
    6.0905    0.5000    0.0000 C   0  0  0  0  0  0  0  0  0  0  0  0
    1.6150    1.5809    0.0000 H   0  0  0  0  0  0  0  0  0  0  0  0
    2.0135    2.2711    0.0000 H   0  0  0  0  0  0  0  0  0  0  0  0
    0.0000    3.3535    0.0000 H   0  0  0  0  0  0  0  0  0  0  0  0
    2.8059    3.3535    0.0000 H   0  0  0  0  0  0  0  0  0  0  0  0
    0.2269    2.2004    0.0000 H   0  0  0  0  0  0  0  0  0  0  0  0
    0.0000    1.3535    0.0000 H   0  0  0  0  0  0  0  0  0  0  0  0
    0.8469    1.1265    0.0000 H   0  0  0  0  0  0  0  0  0  0  0  0
    0.0000    4.9735    0.0000 H   0  0  0  0  0  0  0  0  0  0  0  0
    2.8059    4.9735    0.0000 H   0  0  0  0  0  0  0  0  0  0  0  0
    1.9399    6.4735    0.0000 H   0  0  0  0  0  0  0  0  0  0  0  0
    6.4259    6.3600    0.0000 H   0  0  0  0  0  0  0  0  0  0  0  0
    7.0459    6.9800    0.0000 H   0  0  0  0  0  0  0  0  0  0  0  0
    6.4259    7.6000    0.0000 H   0  0  0  0  0  0  0  0  0  0  0  0
    5.4259    7.6000    0.0000 H   0  0  0  0  0  0  0  0  0  0  0  0
    4.8059    6.9800    0.0000 H   0  0  0  0  0  0  0  0  0  0  0  0
    5.4259    6.3600    0.0000 H   0  0  0  0  0  0  0  0  0  0  0  0
    6.4259    3.1200    0.0000 H   0  0  0  0  0  0  0  0  0  0  0  0
    7.0459    3.7400    0.0000 H   0  0  0  0  0  0  0  0  0  0  0  0
    6.4259    4.3600    0.0000 H   0  0  0  0  0  0  0  0  0  0  0  0
    5.4259    4.3600    0.0000 H   0  0  0  0  0  0  0  0  0  0  0  0
    4.8059    3.7400    0.0000 H   0  0  0  0  0  0  0  0  0  0  0  0
    5.4259    3.1200    0.0000 H   0  0  0  0  0  0  0  0  0  0  0  0
    6.6274    0.1900    0.0000 H   0  0  0  0  0  0  0  0  0  0  0  0
    6.0905    1.1200    0.0000 H   0  0  0  0  0  0  0  0  0  0  0  0
  1 10  1  0  0  0  0
  1 25  1  0  0  0  0
  2 15  2  0  0  0  0
  3  4  1  0  0  0  0
  3  5  2  0  0  0  0
  3  6  1  0  0  0  0
  4  7  1  0  0  0  0
  4 16  1  0  0  0  0
  4 17  1  0  0  0  0
  5  8  1  0  0  0  0
  5 18  1  0  0  0  0
  6  9  2  0  0  0  0
  6 19  1  0  0  0  0
  7 20  1  0  0  0  0
  7 21  1  0  0  0  0
  7 22  1  0  0  0  0
  8 10  2  0  0  0  0
  8 23  1  0  0  0  0
  9 10  1  0  0  0  0
  9 24  1  0  0  0  0
 11 12  1  0  0  0  0
 11 26  1  0  0  0  0
 11 27  1  0  0  0  0
 11 28  1  0  0  0  0
 12 29  1  0  0  0  0
 12 30  1  0  0  0  0
 12 31  1  0  0  0  0
 13 14  1  0  0  0  0
 13 32  1  0  0  0  0
 13 33  1  0  0  0  0
 13 34  1  0  0  0  0
 14 35  1  0  0  0  0
 14 36  1  0  0  0  0
 14 37  1  0  0  0  0
 15 38  1  0  0  0  0
 15 39  1  0  0  0  0
M  END
> <PUBCHEM_COMPOUND_CID>
131698499

> <PUBCHEM_COMPOUND_CANONICALIZED>
1

> <PUBCHEM_CACTVS_COMPLEXITY>
74.6

> <PUBCHEM_CACTVS_HBOND_ACCEPTOR>
2

> <PUBCHEM_CACTVS_HBOND_DONOR>
1

> <PUBCHEM_CACTVS_ROTATABLE_BOND>
1

> <PUBCHEM_CACTVS_SUBSKEYS>
AAADceBwMAAAAAAAAAAAAAAAAAAAAAAAAAAwAAAAAAAAAAABAAAAGgAACAAADASAmAIyBoAAAgCIAiBCgAACAAAgIAAIiAAGCIgIJiKCERKAcAAkwBEImAeAwIAOIAAAAAAAAABAAAAAAAAAAAAAAAAAAA==

> <PUBCHEM_IUPAC_OPENEYE_NAME>
ethane;4-ethylphenol;formaldehyde

> <PUBCHEM_IUPAC_CAS_NAME>
ethane;4-ethylphenol;formaldehyde

> <PUBCHEM_IUPAC_NAME_MARKUP>
ethane;4-ethylphenol;formaldehyde

> <PUBCHEM_IUPAC_NAME>
ethane;4-ethylphenol;formaldehyde

> <PUBCHEM_IUPAC_SYSTEMATIC_NAME>
ethane;4-ethylphenol;methanal

> <PUBCHEM_IUPAC_TRADITIONAL_NAME>
ethane;4-ethylphenol;formaldehyde

> <PUBCHEM_IUPAC_INCHI>
InChI=1S/C8H10O.2C2H6.CH2O/c1-2-7-3-5-8(9)6-4-7;3*1-2/h3-6,9H,2H2,1H3;2*1-2H3;1H2

> <PUBCHEM_IUPAC_INCHIKEY>
HKZPORJFBLCTJG-UHFFFAOYSA-N

> <PUBCHEM_EXACT_MASS>
212.17763

> <PUBCHEM_MOLECULAR_FORMULA>
C13H24O2

> <PUBCHEM_MOLECULAR_WEIGHT>
212.33

> <PUBCHEM_OPENEYE_CAN_SMILES>
CC.CC.CCC1=CC=C(C=C1)O.C=O

> <PUBCHEM_OPENEYE_ISO_SMILES>
CC.CC.CCC1=CC=C(C=C1)O.C=O

> <PUBCHEM_CACTVS_TPSA>
37.3

> <PUBCHEM_MONOISOTOPIC_WEIGHT>
212.17763

> <PUBCHEM_TOTAL_CHARGE>
0

> <PUBCHEM_HEAVY_ATOM_COUNT>
15

> <PUBCHEM_ATOM_DEF_STEREO_COUNT>
0

> <PUBCHEM_ATOM_UDEF_STEREO_COUNT>
0

> <PUBCHEM_BOND_DEF_STEREO_COUNT>
0

> <PUBCHEM_BOND_UDEF_STEREO_COUNT>
0

> <PUBCHEM_ISOTOPIC_ATOM_COUNT>
0

> <PUBCHEM_COMPONENT_COUNT>
4

> <PUBCHEM_CACTVS_TAUTO_COUNT>
-1

> <PUBCHEM_COORDINATE_TYPE>
1
5
255

> <PUBCHEM_BONDANNOTATIONS>
3  5  8
3  6  8
5  8  8
6  9  8
8  10  8
9  10  8

$$$$
129889922
  -OEChem-04052116542D

 72 74  0     1  0  0  0  0  0999 V2000
    8.6760   -1.2500    0.0000 Zn  0  2  0  0  0  0  0  0  0  0  0  0
   11.0719   -0.2500    0.0000 S   0  0  0  0  0  0  0  0  0  0  0  0
   10.4883    0.5547    0.0000 O   0  0  0  0  0  0  0  0  0  0  0  0
   10.4883   -1.0547    0.0000 O   0  0  0  0  0  0  0  0  0  0  0  0
    8.6760    1.7500    0.0000 O   0  0  0  0  0  0  0  0  0  0  0  0
    9.5420    1.2500    0.0000 O   0  0  0  0  0  0  0  0  0  0  0  0
    9.5420   -1.7500    0.0000 O   0  0  0  0  0  0  0  0  0  0  0  0
    6.9440    0.7500    0.0000 O   0  0  0  0  0  0  0  0  0  0  0  0
    6.3100   -1.6160    0.0000 O   0  0  0  0  0  0  0  0  0  0  0  0
   11.8809   -0.8378    0.0000 O   0  0  0  0  0  0  0  0  0  0  0  0
   11.8809    0.3378    0.0000 O   0  0  0  0  0  0  0  0  0  0  0  0
    6.9440    1.7500    0.0000 O   0  0  0  0  0  0  0  0  0  0  0  0
   11.2741   -1.7500    0.0000 O   0  0  0  0  0  0  0  0  0  0  0  0
    4.8100   -0.7500    0.0000 O   0  0  0  0  0  0  0  0  0  0  0  0
    6.0780    5.2500    0.0000 O   0  0  0  0  0  0  0  0  0  0  0  0
    9.5420    5.2500    0.0000 O   0  0  0  0  0  0  0  0  0  0  0  0
   12.1401   -5.2500    0.0000 O   0  0  0  0  0  0  0  0  0  0  0  0
    8.6760   -5.2500    0.0000 O   0  0  0  0  0  0  0  0  0  0  0  0
    7.8100    6.2500    0.0000 O   0  0  0  0  0  0  0  0  0  0  0  0
   10.4081   -6.2500    0.0000 O   0  0  0  0  0  0  0  0  0  0  0  0
    5.3100   -5.0801    0.0000 O   0  0  0  0  0  0  0  0  0  0  0  0
    2.3100   -3.3481    0.0000 O   0  0  0  0  0  0  0  0  0  0  0  0
    3.3100   -5.0801    0.0000 O   0  0  0  0  0  0  0  0  0  0  0  0
    9.5420    0.2500    0.0000 C   0  0  2  0  0  0  0  0  0  0  0  0
    8.6760    0.7500    0.0000 C   0  0  2  0  0  0  0  0  0  0  0  0
    9.5420   -0.7500    0.0000 C   0  5  3  0  0  0  0  0  0  0  0  0
    7.8100    0.2500    0.0000 C   0  0  2  0  0  0  0  0  0  0  0  0
    7.8100   -0.7500    0.0000 C   0  5  3  0  0  0  0  0  0  0  0  0
    6.8100   -0.7500    0.0000 C   0  0  0  0  0  0  0  0  0  0  0  0
    7.8100    2.2500    0.0000 C   0  0  0  0  0  0  0  0  0  0  0  0
   10.4081   -2.2500    0.0000 C   0  0  0  0  0  0  0  0  0  0  0  0
    7.8100    3.2500    0.0000 C   0  0  0  0  0  0  0  0  0  0  0  0
   10.4081   -3.2500    0.0000 C   0  0  0  0  0  0  0  0  0  0  0  0
    5.3100   -1.6160    0.0000 C   0  0  0  0  0  0  0  0  0  0  0  0
    8.6760    3.7500    0.0000 C   0  0  0  0  0  0  0  0  0  0  0  0
    6.9440    3.7500    0.0000 C   0  0  0  0  0  0  0  0  0  0  0  0
    9.5420   -3.7500    0.0000 C   0  0  0  0  0  0  0  0  0  0  0  0
   11.2741   -3.7500    0.0000 C   0  0  0  0  0  0  0  0  0  0  0  0
    4.8100   -2.4820    0.0000 C   0  0  0  0  0  0  0  0  0  0  0  0
    6.9440    4.7500    0.0000 C   0  0  0  0  0  0  0  0  0  0  0  0
    8.6760    4.7500    0.0000 C   0  0  0  0  0  0  0  0  0  0  0  0
   11.2741   -4.7500    0.0000 C   0  0  0  0  0  0  0  0  0  0  0  0
    9.5420   -4.7500    0.0000 C   0  0  0  0  0  0  0  0  0  0  0  0
    7.8100    5.2500    0.0000 C   0  0  0  0  0  0  0  0  0  0  0  0
    3.8100   -2.4820    0.0000 C   0  0  0  0  0  0  0  0  0  0  0  0
    5.3100   -3.3481    0.0000 C   0  0  0  0  0  0  0  0  0  0  0  0
   10.4081   -5.2500    0.0000 C   0  0  0  0  0  0  0  0  0  0  0  0
    4.8100   -4.2141    0.0000 C   0  0  0  0  0  0  0  0  0  0  0  0
    3.3100   -3.3481    0.0000 C   0  0  0  0  0  0  0  0  0  0  0  0
    3.8100   -4.2141    0.0000 C   0  0  0  0  0  0  0  0  0  0  0  0
    8.1391    1.0600    0.0000 H   0  0  0  0  0  0  0  0  0  0  0  0
    7.8100    0.8700    0.0000 H   0  0  0  0  0  0  0  0  0  0  0  0
    7.5000   -1.2869    0.0000 H   0  0  0  0  0  0  0  0  0  0  0  0
    6.9177   -0.1394    0.0000 H   0  0  0  0  0  0  0  0  0  0  0  0
    6.2274   -0.5379    0.0000 H   0  0  0  0  0  0  0  0  0  0  0  0
   10.0790    1.5600    0.0000 H   0  0  0  0  0  0  0  0  0  0  0  0
    6.4070    0.4400    0.0000 H   0  0  0  0  0  0  0  0  0  0  0  0
    9.2130    3.4400    0.0000 H   0  0  0  0  0  0  0  0  0  0  0  0
    6.4070    3.4400    0.0000 H   0  0  0  0  0  0  0  0  0  0  0  0
    9.0051   -3.4400    0.0000 H   0  0  0  0  0  0  0  0  0  0  0  0
   11.8110   -3.4400    0.0000 H   0  0  0  0  0  0  0  0  0  0  0  0
    3.5000   -1.9451    0.0000 H   0  0  0  0  0  0  0  0  0  0  0  0
    5.9300   -3.3481    0.0000 H   0  0  0  0  0  0  0  0  0  0  0  0
    5.5410    4.9400    0.0000 H   0  0  0  0  0  0  0  0  0  0  0  0
    9.5420    5.8700    0.0000 H   0  0  0  0  0  0  0  0  0  0  0  0
   12.6771   -4.9400    0.0000 H   0  0  0  0  0  0  0  0  0  0  0  0
    8.6760   -5.8700    0.0000 H   0  0  0  0  0  0  0  0  0  0  0  0
    7.2731    6.5600    0.0000 H   0  0  0  0  0  0  0  0  0  0  0  0
   10.9450   -6.5600    0.0000 H   0  0  0  0  0  0  0  0  0  0  0  0
    5.0000   -5.6171    0.0000 H   0  0  0  0  0  0  0  0  0  0  0  0
    2.0000   -2.8111    0.0000 H   0  0  0  0  0  0  0  0  0  0  0  0
    2.6900   -5.0801    0.0000 H   0  0  0  0  0  0  0  0  0  0  0  0
  2  3  1  0  0  0  0
  2  4  1  0  0  0  0
  2 10  2  0  0  0  0
  2 11  2  0  0  0  0
  3 24  1  0  0  0  0
  4 26  1  0  0  0  0
 25  5  1  6  0  0  0
  5 30  1  0  0  0  0
 24  6  1  6  0  0  0
  6 56  1  0  0  0  0
  7 26  1  0  0  0  0
  7 31  1  0  0  0  0
 27  8  1  6  0  0  0
  8 57  1  0  0  0  0
  9 29  1  0  0  0  0
  9 34  1  0  0  0  0
 12 30  2  0  0  0  0
 13 31  2  0  0  0  0
 14 34  2  0  0  0  0
 15 40  1  0  0  0  0
 15 64  1  0  0  0  0
 16 41  1  0  0  0  0
 16 65  1  0  0  0  0
 17 42  1  0  0  0  0
 17 66  1  0  0  0  0
 18 43  1  0  0  0  0
 18 67  1  0  0  0  0
 19 44  1  0  0  0  0
 19 68  1  0  0  0  0
 20 47  1  0  0  0  0
 20 69  1  0  0  0  0
 21 48  1  0  0  0  0
 21 70  1  0  0  0  0
 22 49  1  0  0  0  0
 22 71  1  0  0  0  0
 23 50  1  0  0  0  0
 23 72  1  0  0  0  0
 24 25  1  0  0  0  0
 24 26  1  0  0  0  0
 25 27  1  0  0  0  0
 25 51  1  0  0  0  0
 27 28  1  0  0  0  0
 27 52  1  0  0  0  0
 28 29  1  0  0  0  0
 28 53  1  0  0  0  0
 29 54  1  0  0  0  0
 29 55  1  0  0  0  0
 30 32  1  0  0  0  0
 31 33  1  0  0  0  0
 32 35  2  0  0  0  0
 32 36  1  0  0  0  0
 33 37  2  0  0  0  0
 33 38  1  0  0  0  0
 34 39  1  0  0  0  0
 35 41  1  0  0  0  0
 35 58  1  0  0  0  0
 36 40  2  0  0  0  0
 36 59  1  0  0  0  0
 37 43  1  0  0  0  0
 37 60  1  0  0  0  0
 38 42  2  0  0  0  0
 38 61  1  0  0  0  0
 39 45  2  0  0  0  0
 39 46  1  0  0  0  0
 40 44  1  0  0  0  0
 41 44  2  0  0  0  0
 42 47  1  0  0  0  0
 43 47  2  0  0  0  0
 45 49  1  0  0  0  0
 45 62  1  0  0  0  0
 46 48  2  0  0  0  0
 46 63  1  0  0  0  0
 48 50  1  0  0  0  0
 49 50  2  0  0  0  0
M  CHG  3   1   2  26  -1  28  -1
M  END
> <PUBCHEM_COMPOUND_CID>
129889922

> <PUBCHEM_COMPOUND_CANONICALIZED>
1

> <PUBCHEM_CACTVS_COMPLEXITY>
1260

> <PUBCHEM_CACTVS_HBOND_ACCEPTOR>
23

> <PUBCHEM_CACTVS_HBOND_DONOR>
11

> <PUBCHEM_CACTVS_ROTATABLE_BOND>
10

> <PUBCHEM_CACTVS_SUBSKEYS>
AAADceB4PgBAAAACAAAAAAAAAAAAASAAAAA0YMEAAAAAAEgBUAAAGgAACAAADBSgmAIwDoAABgCIAiDSCDACAAAkIAAAiAEGiMgZNzKCNRqCcQElwBUPuYfK7DzOIAABCAAAQABAAAIQAACAAAAAAAAAAA==

> <PUBCHEM_IUPAC_INCHI>
InChI=1S/C27H22O21S.Zn/c28-12(1-2-44-23(38)9-3-13(29)19(35)14(30)4-9)22(45-24(39)10-5-15(31)20(36)16(32)6-10)27(41)26(47-49(42,43)48-27)46-25(40)11-7-17(33)21(37)18(34)8-11;/h1,3-8,12,22,28-37,41H,2H2;/q-2;+2/t12-,22-,27+;/m0./s1

> <PUBCHEM_IUPAC_INCHIKEY>
XFRNPRQBUOFYQY-REFXHIHVSA-N

> <PUBCHEM_EXACT_MASS>
777.966571

> <PUBCHEM_MOLECULAR_FORMULA>
C27H22O21SZn

> <PUBCHEM_MOLECULAR_WEIGHT>
779.9

> <PUBCHEM_OPENEYE_CAN_SMILES>
C1=C(C=C(C(=C1O)O)O)C(=O)OC[CH-]C(C(C2([C-](OS(=O)(=O)O2)OC(=O)C3=CC(=C(C(=C3)O)O)O)O)OC(=O)C4=CC(=C(C(=C4)O)O)O)O.[Zn+2]

> <PUBCHEM_OPENEYE_ISO_SMILES>
C1=C(C=C(C(=C1O)O)O)C(=O)OC[CH-][C@@H]([C@@H]([C@@]2([C-](OS(=O)(=O)O2)OC(=O)C3=CC(=C(C(=C3)O)O)O)O)OC(=O)C4=CC(=C(C(=C4)O)O)O)O.[Zn+2]

> <PUBCHEM_CACTVS_TPSA>
362

> <PUBCHEM_MONOISOTOPIC_WEIGHT>
777.966571

> <PUBCHEM_TOTAL_CHARGE>
0

> <PUBCHEM_HEAVY_ATOM_COUNT>
50

> <PUBCHEM_ATOM_DEF_STEREO_COUNT>
3

> <PUBCHEM_ATOM_UDEF_STEREO_COUNT>
0

> <PUBCHEM_BOND_DEF_STEREO_COUNT>
0

> <PUBCHEM_BOND_UDEF_STEREO_COUNT>
0

> <PUBCHEM_ISOTOPIC_ATOM_COUNT>
0

> <PUBCHEM_COMPONENT_COUNT>
2

> <PUBCHEM_CACTVS_TAUTO_COUNT>
-1

> <PUBCHEM_NONSTANDARDBOND>
1  26  6
1  28  6

> <PUBCHEM_COORDINATE_TYPE>
1
5
255

> <PUBCHEM_BONDANNOTATIONS>
32  35  8
32  36  8
33  37  8
33  38  8
35  41  8
36  40  8
37  43  8
38  42  8
39  45  8
39  46  8
40  44  8
41  44  8
42  47  8
43  47  8
45  49  8
46  48  8
48  50  8
49  50  8
25  5  6
24  6  6
27  8  6

$$$$
129881097
  -OEChem-04052116542D

 91 94  0     1  0  0  0  0  0999 V2000
    8.5991    1.2421    0.0000 O   0  0  0  0  0  0  0  0  0  0  0  0
    7.2331   -0.1239    0.0000 O   0  0  0  0  0  0  0  0  0  0  0  0
    6.0010    2.7421    0.0000 O   0  0  0  0  0  0  0  0  0  0  0  0
    6.0010    0.7421    0.0000 O   0  0  0  0  0  0  0  0  0  0  0  0
    7.7331    3.7421    0.0000 O   0  0  0  0  0  0  0  0  0  0  0  0
   10.3312    2.2421    0.0000 O   0  0  0  0  0  0  0  0  0  0  0  0
    9.7331   -0.9899    0.0000 O   0  0  0  0  0  0  0  0  0  0  0  0
    9.7331    0.7421    0.0000 O   0  0  0  0  0  0  0  0  0  0  0  0
    8.7331   -0.9899    0.0000 O   0  0  0  0  0  0  0  0  0  0  0  0
    6.8671    4.2421    0.0000 O   0  0  0  0  0  0  0  0  0  0  0  0
   10.7331   -0.9899    0.0000 O   0  0  0  0  0  0  0  0  0  0  0  0
   11.1972    3.7421    0.0000 O   0  0  0  0  0  0  0  0  0  0  0  0
    7.7331   -4.4540    0.0000 O   0  0  0  0  0  0  0  0  0  0  0  0
    4.7331   -2.7220    0.0000 O   0  0  0  0  0  0  0  0  0  0  0  0
    2.5369    3.7421    0.0000 O   0  0  0  0  0  0  0  0  0  0  0  0
    4.2690    6.7421    0.0000 O   0  0  0  0  0  0  0  0  0  0  0  0
    5.7331   -4.4540    0.0000 O   0  0  0  0  0  0  0  0  0  0  0  0
    2.5369    5.7421    0.0000 O   0  0  0  0  0  0  0  0  0  0  0  0
   14.6613    2.7421    0.0000 O   0  0  0  0  0  0  0  0  0  0  0  0
   12.9292   -0.2579    0.0000 O   0  0  0  0  0  0  0  0  0  0  0  0
   10.7331   -2.7220    0.0000 O   0  0  0  0  0  0  0  0  0  0  0  0
   14.6613    0.7421    0.0000 O   0  0  0  0  0  0  0  0  0  0  0  0
   12.7331   -4.4540    0.0000 O   0  0  0  0  0  0  0  0  0  0  0  0
   11.2331   -3.5880    0.0000 O   0  0  0  0  0  0  0  0  0  0  0  0
   12.2331   -5.3201    0.0000 O   0  0  0  0  0  0  0  0  0  0  0  0
   13.7331   -6.1861    0.0000 O   0  0  0  0  0  0  0  0  0  0  0  0
    7.7331    0.7421    0.0000 C   0  0  1  0  0  0  0  0  0  0  0  0
    6.8671    1.2421    0.0000 C   0  0  1  0  0  0  0  0  0  0  0  0
    6.8671    2.2421    0.0000 C   0  0  2  0  0  0  0  0  0  0  0  0
    7.7331    2.7421    0.0000 C   0  0  1  0  0  0  0  0  0  0  0  0
    8.5991    2.2421    0.0000 C   0  0  1  0  0  0  0  0  0  0  0  0
    8.2331   -0.1239    0.0000 C   0  0  0  0  0  0  0  0  0  0  0  0
    9.4651    2.7421    0.0000 C   0  0  0  0  0  0  0  0  0  0  0  0
    9.2331   -0.1239    0.0000 C   0  0  0  0  0  0  0  0  0  0  0  0
    7.7331   -0.9899    0.0000 C   0  0  0  0  0  0  0  0  0  0  0  0
    6.0010    3.7421    0.0000 C   0  0  0  0  0  0  0  0  0  0  0  0
    7.2331   -1.8560    0.0000 C   0  0  0  0  0  0  0  0  0  0  0  0
    5.1350    4.2421    0.0000 C   0  0  0  0  0  0  0  0  0  0  0  0
   11.1972    2.7421    0.0000 C   0  0  0  0  0  0  0  0  0  0  0  0
   12.0632    2.2421    0.0000 C   0  0  0  0  0  0  0  0  0  0  0  0
    6.2331   -1.8560    0.0000 C   0  0  0  0  0  0  0  0  0  0  0  0
    7.7331   -2.7220    0.0000 C   0  0  0  0  0  0  0  0  0  0  0  0
    5.1350    5.2421    0.0000 C   0  0  0  0  0  0  0  0  0  0  0  0
    4.2690    3.7421    0.0000 C   0  0  0  0  0  0  0  0  0  0  0  0
    7.2331   -3.5880    0.0000 C   0  0  0  0  0  0  0  0  0  0  0  0
    5.7331   -2.7220    0.0000 C   0  0  0  0  0  0  0  0  0  0  0  0
    3.4030    4.2421    0.0000 C   0  0  0  0  0  0  0  0  0  0  0  0
    4.2690    5.7421    0.0000 C   0  0  0  0  0  0  0  0  0  0  0  0
   12.0632    1.2421    0.0000 C   0  0  0  0  0  0  0  0  0  0  0  0
   12.9292    2.7421    0.0000 C   0  0  0  0  0  0  0  0  0  0  0  0
    6.2331   -3.5880    0.0000 C   0  0  0  0  0  0  0  0  0  0  0  0
    3.4030    5.2421    0.0000 C   0  0  0  0  0  0  0  0  0  0  0  0
   13.7953    2.2421    0.0000 C   0  0  0  0  0  0  0  0  0  0  0  0
   12.9292    0.7421    0.0000 C   0  0  0  0  0  0  0  0  0  0  0  0
   11.2331   -1.8560    0.0000 C   0  0  0  0  0  0  0  0  0  0  0  0
   13.7953    1.2421    0.0000 C   0  0  0  0  0  0  0  0  0  0  0  0
   12.2331   -1.8560    0.0000 C   0  0  0  0  0  0  0  0  0  0  0  0
   12.7331   -2.7220    0.0000 C   0  0  0  0  0  0  0  0  0  0  0  0
   12.2331   -3.5880    0.0000 C   0  0  0  0  0  0  0  0  0  0  0  0
   12.7331   -6.1861    0.0000 C   0  0  0  0  0  0  0  0  0  0  0  0
   12.2331   -7.0521    0.0000 C   0  0  0  0  0  0  0  0  0  0  0  0
    6.3301    1.5521    0.0000 H   0  0  0  0  0  0  0  0  0  0  0  0
    6.8671    2.8621    0.0000 H   0  0  0  0  0  0  0  0  0  0  0  0
    8.2700    3.0521    0.0000 H   0  0  0  0  0  0  0  0  0  0  0  0
    9.1360    1.9321    0.0000 H   0  0  0  0  0  0  0  0  0  0  0  0
    7.6505   -0.3360    0.0000 H   0  0  0  0  0  0  0  0  0  0  0  0
    8.3408   -0.7345    0.0000 H   0  0  0  0  0  0  0  0  0  0  0  0
    9.8637    3.2171    0.0000 H   0  0  0  0  0  0  0  0  0  0  0  0
    9.0666    3.2171    0.0000 H   0  0  0  0  0  0  0  0  0  0  0  0
    5.4641    1.0521    0.0000 H   0  0  0  0  0  0  0  0  0  0  0  0
    8.2700    4.0521    0.0000 H   0  0  0  0  0  0  0  0  0  0  0  0
    5.9231   -1.3190    0.0000 H   0  0  0  0  0  0  0  0  0  0  0  0
    8.3531   -2.7220    0.0000 H   0  0  0  0  0  0  0  0  0  0  0  0
    5.6720    5.5521    0.0000 H   0  0  0  0  0  0  0  0  0  0  0  0
    4.2690    3.1221    0.0000 H   0  0  0  0  0  0  0  0  0  0  0  0
   11.5263    0.9321    0.0000 H   0  0  0  0  0  0  0  0  0  0  0  0
   12.9292    3.3621    0.0000 H   0  0  0  0  0  0  0  0  0  0  0  0
    8.3531   -4.4540    0.0000 H   0  0  0  0  0  0  0  0  0  0  0  0
    4.4231   -3.2589    0.0000 H   0  0  0  0  0  0  0  0  0  0  0  0
    2.0000    4.0521    0.0000 H   0  0  0  0  0  0  0  0  0  0  0  0
    4.8059    7.0521    0.0000 H   0  0  0  0  0  0  0  0  0  0  0  0
    6.0431   -4.9910    0.0000 H   0  0  0  0  0  0  0  0  0  0  0  0
    2.5369    6.3621    0.0000 H   0  0  0  0  0  0  0  0  0  0  0  0
   12.5431   -1.3190    0.0000 H   0  0  0  0  0  0  0  0  0  0  0  0
   14.6613    3.3621    0.0000 H   0  0  0  0  0  0  0  0  0  0  0  0
   13.4662   -0.5679    0.0000 H   0  0  0  0  0  0  0  0  0  0  0  0
   15.1982    1.0521    0.0000 H   0  0  0  0  0  0  0  0  0  0  0  0
   13.3531   -2.7220    0.0000 H   0  0  0  0  0  0  0  0  0  0  0  0
   11.6962   -6.7421    0.0000 H   0  0  0  0  0  0  0  0  0  0  0  0
   11.9231   -7.5890    0.0000 H   0  0  0  0  0  0  0  0  0  0  0  0
   12.7700   -7.3621    0.0000 H   0  0  0  0  0  0  0  0  0  0  0  0
  1 27  1  0  0  0  0
  1 31  1  0  0  0  0
 27  2  1  1  0  0  0
  2 35  1  0  0  0  0
 29  3  1  1  0  0  0
  3 36  1  0  0  0  0
 28  4  1  6  0  0  0
  4 70  1  0  0  0  0
 30  5  1  6  0  0  0
  5 71  1  0  0  0  0
  6 33  1  0  0  0  0
  6 39  1  0  0  0  0
  7 11  1  0  0  0  0
  7 34  1  0  0  0  0
  8 34  2  0  0  0  0
  9 35  2  0  0  0  0
 10 36  2  0  0  0  0
 11 55  1  0  0  0  0
 12 39  2  0  0  0  0
 13 45  1  0  0  0  0
 13 78  1  0  0  0  0
 14 46  1  0  0  0  0
 14 79  1  0  0  0  0
 15 47  1  0  0  0  0
 15 80  1  0  0  0  0
 16 48  1  0  0  0  0
 16 81  1  0  0  0  0
 17 51  1  0  0  0  0
 17 82  1  0  0  0  0
 18 52  1  0  0  0  0
 18 83  1  0  0  0  0
 19 53  1  0  0  0  0
 19 85  1  0  0  0  0
 20 54  1  0  0  0  0
 20 86  1  0  0  0  0
 21 55  2  0  0  0  0
 22 56  1  0  0  0  0
 22 87  1  0  0  0  0
 23 25  1  0  0  0  0
 23 59  1  0  0  0  0
 24 59  2  0  0  0  0
 25 60  1  0  0  0  0
 26 60  2  0  0  0  0
 27 28  1  0  0  0  0
 27 32  1  0  0  0  0
 28 29  1  0  0  0  0
 28 62  1  0  0  0  0
 29 30  1  0  0  0  0
 29 63  1  0  0  0  0
 30 31  1  0  0  0  0
 30 64  1  0  0  0  0
 31 33  1  1  0  0  0
 31 65  1  0  0  0  0
 32 34  1  0  0  0  0
 32 66  1  0  0  0  0
 32 67  1  0  0  0  0
 33 68  1  0  0  0  0
 33 69  1  0  0  0  0
 35 37  1  0  0  0  0
 36 38  1  0  0  0  0
 37 41  2  0  0  0  0
 37 42  1  0  0  0  0
 38 43  2  0  0  0  0
 38 44  1  0  0  0  0
 39 40  1  0  0  0  0
 40 49  2  0  0  0  0
 40 50  1  0  0  0  0
 41 46  1  0  0  0  0
 41 72  1  0  0  0  0
 42 45  2  0  0  0  0
 42 73  1  0  0  0  0
 43 48  1  0  0  0  0
 43 74  1  0  0  0  0
 44 47  2  0  0  0  0
 44 75  1  0  0  0  0
 45 51  1  0  0  0  0
 46 51  2  0  0  0  0
 47 52  1  0  0  0  0
 48 52  2  0  0  0  0
 49 54  1  0  0  0  0
 49 76  1  0  0  0  0
 50 53  2  0  0  0  0
 50 77  1  0  0  0  0
 53 56  1  0  0  0  0
 54 56  2  0  0  0  0
 55 57  1  0  0  0  0
 57 58  2  0  0  0  0
 57 84  1  0  0  0  0
 58 59  1  0  0  0  0
 58 88  1  0  0  0  0
 60 61  1  0  0  0  0
 61 89  1  0  0  0  0
 61 90  1  0  0  0  0
 61 91  1  0  0  0  0
M  END
> <PUBCHEM_COMPOUND_CID>
129881097

> <PUBCHEM_COMPOUND_CANONICALIZED>
1

> <PUBCHEM_CACTVS_COMPLEXITY>
1600

> <PUBCHEM_CACTVS_HBOND_ACCEPTOR>
26

> <PUBCHEM_CACTVS_HBOND_DONOR>
11

> <PUBCHEM_CACTVS_ROTATABLE_BOND>
20

> <PUBCHEM_CACTVS_SUBSKEYS>
AAADceB8PgAAAAAAAAAAAAAAAAAAAAAAAAA0YMEAAAAAAAABUAAAGgAADAAADBSgmAIyDoAABgCIAiDSCAACAAAkIAAIiAEGiMgZNzaCNRqicQEl4BUPuYfK7LzOIAABCAAAQABAAAIQAACAAAAAAAAAAA==

> <PUBCHEM_IUPAC_OPENEYE_NAME>
[(2R,3R,4S,5R,6S)-6-[2-[(Z)-4-acetylperoxy-4-oxo-but-2-enoyl]peroxy-2-oxo-ethyl]-3,5-dihydroxy-4,6-bis[(3,4,5-trihydroxybenzoyl)oxy]tetrahydropyran-2-yl]methyl 3,4,5-trihydroxybenzoate

> <PUBCHEM_IUPAC_CAS_NAME>
3,4,5-trihydroxybenzoic acid [(2R,3R,4S,5R,6S)-6-[2-[(Z)-4-acetyldioxy-1,4-dioxobut-2-enyl]dioxy-2-oxoethyl]-3,5-dihydroxy-4,6-bis[oxo-(3,4,5-trihydroxyphenyl)methoxy]-2-oxanyl]methyl ester

> <PUBCHEM_IUPAC_NAME_MARKUP>
[(2<I>R</I>,3<I>R</I>,4<I>S</I>,5<I>R</I>,6<I>S</I>)-6-[2-[(<I>Z</I>)-4-acetylperoxy-4-oxobut-2-enoyl]peroxy-2-oxoethyl]-3,5-dihydroxy-4,6-bis[(3,4,5-trihydroxybenzoyl)oxy]oxan-2-yl]methyl 3,4,5-trihydroxybenzoate

> <PUBCHEM_IUPAC_NAME>
[(2R,3R,4S,5R,6S)-6-[2-[(Z)-4-acetylperoxy-4-oxobut-2-enoyl]peroxy-2-oxoethyl]-3,5-dihydroxy-4,6-bis[(3,4,5-trihydroxybenzoyl)oxy]oxan-2-yl]methyl 3,4,5-trihydroxybenzoate

> <PUBCHEM_IUPAC_SYSTEMATIC_NAME>
[(2R,3R,4S,5R,6S)-6-[2-[(Z)-4-ethanoylperoxy-4-oxidanylidene-but-2-enoyl]peroxy-2-oxidanylidene-ethyl]-3,5-bis(oxidanyl)-4,6-bis[[3,4,5-tris(oxidanyl)phenyl]carbonyloxy]oxan-2-yl]methyl 3,4,5-tris(oxidanyl)benzoate

> <PUBCHEM_IUPAC_TRADITIONAL_NAME>
3,4,5-trihydroxybenzoic acid [(2R,3R,4S,5R,6S)-6-[2-[(Z)-4-acetylperoxy-4-keto-but-2-enoyl]peroxy-2-keto-ethyl]-4,6-digalloyloxy-3,5-dihydroxy-tetrahydropyran-2-yl]methyl ester

> <PUBCHEM_IUPAC_INCHI>
InChI=1S/C35H30O26/c1-12(36)58-59-23(43)2-3-24(44)60-61-25(45)10-35(57-34(53)15-8-20(41)28(48)21(42)9-15)31(50)30(55-33(52)14-6-18(39)27(47)19(40)7-14)29(49)22(56-35)11-54-32(51)13-4-16(37)26(46)17(38)5-13/h2-9,22,29-31,37-42,46-50H,10-11H2,1H3/b3-2-/t22-,29-,30+,31-,35+/m1/s1

> <PUBCHEM_IUPAC_INCHIKEY>
FTFMSBNHXWCRDV-KETIEMDCSA-N

> <PUBCHEM_XLOGP3_AA>
0.3

> <PUBCHEM_EXACT_MASS>
866.102531

> <PUBCHEM_MOLECULAR_FORMULA>
C35H30O26

> <PUBCHEM_MOLECULAR_WEIGHT>
866.6

> <PUBCHEM_OPENEYE_CAN_SMILES>
CC(=O)OOC(=O)C=CC(=O)OOC(=O)CC1(C(C(C(C(O1)COC(=O)C2=CC(=C(C(=C2)O)O)O)O)OC(=O)C3=CC(=C(C(=C3)O)O)O)O)OC(=O)C4=CC(=C(C(=C4)O)O)O

> <PUBCHEM_OPENEYE_ISO_SMILES>
CC(=O)OOC(=O)/C=C\C(=O)OOC(=O)C[C@@]1([C@@H]([C@H]([C@@H]([C@H](O1)COC(=O)C2=CC(=C(C(=C2)O)O)O)O)OC(=O)C3=CC(=C(C(=C3)O)O)O)O)OC(=O)C4=CC(=C(C(=C4)O)O)O

> <PUBCHEM_CACTVS_TPSA>
416

> <PUBCHEM_MONOISOTOPIC_WEIGHT>
866.102531

> <PUBCHEM_TOTAL_CHARGE>
0

> <PUBCHEM_HEAVY_ATOM_COUNT>
61

> <PUBCHEM_ATOM_DEF_STEREO_COUNT>
5

> <PUBCHEM_ATOM_UDEF_STEREO_COUNT>
0

> <PUBCHEM_BOND_DEF_STEREO_COUNT>
1

> <PUBCHEM_BOND_UDEF_STEREO_COUNT>
0

> <PUBCHEM_ISOTOPIC_ATOM_COUNT>
0

> <PUBCHEM_COMPONENT_COUNT>
1

> <PUBCHEM_CACTVS_TAUTO_COUNT>
-1

> <PUBCHEM_COORDINATE_TYPE>
1
5
255

> <PUBCHEM_BONDANNOTATIONS>
27  2  5
29  3  5
31  33  5
37  41  8
37  42  8
38  43  8
38  44  8
28  4  6
40  49  8
40  50  8
41  46  8
42  45  8
43  48  8
44  47  8
45  51  8
46  51  8
47  52  8
48  52  8
49  54  8
30  5  6
50  53  8
53  56  8
54  56  8

$$$$
129881079
  -OEChem-04052116542D

105108  0     1  0  0  0  0  0999 V2000
    8.5991    0.8091    0.0000 O   0  0  0  0  0  0  0  0  0  0  0  0
    6.0010    2.3091    0.0000 O   0  0  0  0  0  0  0  0  0  0  0  0
    8.2331   -0.5569    0.0000 O   0  0  0  0  0  0  0  0  0  0  0  0
    7.7331    3.3091    0.0000 O   0  0  0  0  0  0  0  0  0  0  0  0
    7.2331   -0.5569    0.0000 O   0  0  0  0  0  0  0  0  0  0  0  0
    6.0010    0.3091    0.0000 O   0  0  0  0  0  0  0  0  0  0  0  0
   10.3312    1.8091    0.0000 O   0  0  0  0  0  0  0  0  0  0  0  0
    9.7331    0.3091    0.0000 O   0  0  0  0  0  0  0  0  0  0  0  0
    6.8671    3.8091    0.0000 O   0  0  0  0  0  0  0  0  0  0  0  0
    8.7331   -1.4230    0.0000 O   0  0  0  0  0  0  0  0  0  0  0  0
   11.1972    3.3091    0.0000 O   0  0  0  0  0  0  0  0  0  0  0  0
    2.5369    3.3091    0.0000 O   0  0  0  0  0  0  0  0  0  0  0  0
    4.2690    6.3091    0.0000 O   0  0  0  0  0  0  0  0  0  0  0  0
    7.7331   -4.8870    0.0000 O   0  0  0  0  0  0  0  0  0  0  0  0
    4.7331   -3.1550    0.0000 O   0  0  0  0  0  0  0  0  0  0  0  0
    2.5369    5.3091    0.0000 O   0  0  0  0  0  0  0  0  0  0  0  0
    5.7331   -4.8870    0.0000 O   0  0  0  0  0  0  0  0  0  0  0  0
   14.6613    2.3091    0.0000 O   0  0  0  0  0  0  0  0  0  0  0  0
   12.9292   -0.6909    0.0000 O   0  0  0  0  0  0  0  0  0  0  0  0
   14.6613    0.3091    0.0000 O   0  0  0  0  0  0  0  0  0  0  0  0
    6.8671    1.8091    0.0000 C   0  0  1  0  0  0  0  0  0  0  0  0
    7.7331    2.3091    0.0000 C   0  0  1  0  0  0  0  0  0  0  0  0
    6.8671    0.8091    0.0000 C   0  0  2  0  0  0  0  0  0  0  0  0
    8.5991    1.8091    0.0000 C   0  0  1  0  0  0  0  0  0  0  0  0
    7.7331    0.3091    0.0000 C   0  0  1  0  0  0  0  0  0  0  0  0
    9.4651    2.3091    0.0000 C   0  0  0  0  0  0  0  0  0  0  0  0
    9.2331   -0.5569    0.0000 C   0  0  0  0  0  0  0  0  0  0  0  0
    9.7331   -1.4230    0.0000 C   0  0  0  0  0  0  0  0  0  0  0  0
    6.0010    3.3091    0.0000 C   0  0  0  0  0  0  0  0  0  0  0  0
   10.7331   -1.4230    0.0000 C   0  0  0  0  0  0  0  0  0  0  0  0
    7.7331   -1.4230    0.0000 C   0  0  0  0  0  0  0  0  0  0  0  0
   11.2331   -2.2890    0.0000 C   0  0  0  0  0  0  0  0  0  0  0  0
   10.7331   -3.1550    0.0000 C   0  0  0  0  0  0  0  0  0  0  0  0
   11.2331   -4.0210    0.0000 C   0  0  0  0  0  0  0  0  0  0  0  0
   12.2331   -4.0210    0.0000 C   0  0  0  0  0  0  0  0  0  0  0  0
    5.1350    3.8091    0.0000 C   0  0  0  0  0  0  0  0  0  0  0  0
   12.7331   -4.8870    0.0000 C   0  0  0  0  0  0  0  0  0  0  0  0
   11.1972    2.3091    0.0000 C   0  0  0  0  0  0  0  0  0  0  0  0
    7.2331   -2.2890    0.0000 C   0  0  0  0  0  0  0  0  0  0  0  0
   13.7331   -4.8870    0.0000 C   0  0  0  0  0  0  0  0  0  0  0  0
   14.2331   -5.7531    0.0000 C   0  0  0  0  0  0  0  0  0  0  0  0
   12.0632    1.8091    0.0000 C   0  0  0  0  0  0  0  0  0  0  0  0
    5.1350    4.8091    0.0000 C   0  0  0  0  0  0  0  0  0  0  0  0
    4.2690    3.3091    0.0000 C   0  0  0  0  0  0  0  0  0  0  0  0
    6.2331   -2.2890    0.0000 C   0  0  0  0  0  0  0  0  0  0  0  0
    7.7331   -3.1550    0.0000 C   0  0  0  0  0  0  0  0  0  0  0  0
   15.2331   -5.7531    0.0000 C   0  0  0  0  0  0  0  0  0  0  0  0
    3.4030    3.8091    0.0000 C   0  0  0  0  0  0  0  0  0  0  0  0
    4.2690    5.3091    0.0000 C   0  0  0  0  0  0  0  0  0  0  0  0
    7.2331   -4.0210    0.0000 C   0  0  0  0  0  0  0  0  0  0  0  0
    5.7331   -3.1550    0.0000 C   0  0  0  0  0  0  0  0  0  0  0  0
   12.0632    0.8091    0.0000 C   0  0  0  0  0  0  0  0  0  0  0  0
   12.9292    2.3091    0.0000 C   0  0  0  0  0  0  0  0  0  0  0  0
    3.4030    4.8091    0.0000 C   0  0  0  0  0  0  0  0  0  0  0  0
   15.7331   -6.6191    0.0000 C   0  0  0  0  0  0  0  0  0  0  0  0
    6.2331   -4.0210    0.0000 C   0  0  0  0  0  0  0  0  0  0  0  0
   13.7953    1.8091    0.0000 C   0  0  0  0  0  0  0  0  0  0  0  0
   12.9292    0.3091    0.0000 C   0  0  0  0  0  0  0  0  0  0  0  0
   13.7953    0.8091    0.0000 C   0  0  0  0  0  0  0  0  0  0  0  0
    6.8671    2.4291    0.0000 H   0  0  0  0  0  0  0  0  0  0  0  0
    8.2700    2.6191    0.0000 H   0  0  0  0  0  0  0  0  0  0  0  0
    6.3301    1.1191    0.0000 H   0  0  0  0  0  0  0  0  0  0  0  0
    9.1360    1.4991    0.0000 H   0  0  0  0  0  0  0  0  0  0  0  0
    9.8637    2.7840    0.0000 H   0  0  0  0  0  0  0  0  0  0  0  0
    9.0666    2.7840    0.0000 H   0  0  0  0  0  0  0  0  0  0  0  0
    8.2700    3.6191    0.0000 H   0  0  0  0  0  0  0  0  0  0  0  0
    5.4641    0.6191    0.0000 H   0  0  0  0  0  0  0  0  0  0  0  0
    9.1505   -1.6350    0.0000 H   0  0  0  0  0  0  0  0  0  0  0  0
    9.8408   -2.0335    0.0000 H   0  0  0  0  0  0  0  0  0  0  0  0
   11.3157   -1.2109    0.0000 H   0  0  0  0  0  0  0  0  0  0  0  0
   10.6254   -0.8124    0.0000 H   0  0  0  0  0  0  0  0  0  0  0  0
   11.7080   -2.6875    0.0000 H   0  0  0  0  0  0  0  0  0  0  0  0
   11.7080   -1.8904    0.0000 H   0  0  0  0  0  0  0  0  0  0  0  0
   10.2581   -2.7565    0.0000 H   0  0  0  0  0  0  0  0  0  0  0  0
   10.2581   -3.5535    0.0000 H   0  0  0  0  0  0  0  0  0  0  0  0
   10.6505   -4.2331    0.0000 H   0  0  0  0  0  0  0  0  0  0  0  0
   11.3408   -4.6316    0.0000 H   0  0  0  0  0  0  0  0  0  0  0  0
   12.8157   -3.8090    0.0000 H   0  0  0  0  0  0  0  0  0  0  0  0
   12.1254   -3.4104    0.0000 H   0  0  0  0  0  0  0  0  0  0  0  0
   12.1505   -5.0991    0.0000 H   0  0  0  0  0  0  0  0  0  0  0  0
   12.8408   -5.4976    0.0000 H   0  0  0  0  0  0  0  0  0  0  0  0
   14.3157   -4.6750    0.0000 H   0  0  0  0  0  0  0  0  0  0  0  0
   13.6254   -4.2765    0.0000 H   0  0  0  0  0  0  0  0  0  0  0  0
   13.6505   -5.9651    0.0000 H   0  0  0  0  0  0  0  0  0  0  0  0
   14.3408   -6.3637    0.0000 H   0  0  0  0  0  0  0  0  0  0  0  0
    5.6720    5.1191    0.0000 H   0  0  0  0  0  0  0  0  0  0  0  0
    4.2690    2.6891    0.0000 H   0  0  0  0  0  0  0  0  0  0  0  0
    5.9231   -1.7520    0.0000 H   0  0  0  0  0  0  0  0  0  0  0  0
    8.3531   -3.1550    0.0000 H   0  0  0  0  0  0  0  0  0  0  0  0
   15.8157   -5.5410    0.0000 H   0  0  0  0  0  0  0  0  0  0  0  0
   15.1254   -5.1425    0.0000 H   0  0  0  0  0  0  0  0  0  0  0  0
   11.5263    0.4991    0.0000 H   0  0  0  0  0  0  0  0  0  0  0  0
   12.9292    2.9291    0.0000 H   0  0  0  0  0  0  0  0  0  0  0  0
   15.1962   -6.9291    0.0000 H   0  0  0  0  0  0  0  0  0  0  0  0
   16.0431   -7.1560    0.0000 H   0  0  0  0  0  0  0  0  0  0  0  0
   16.2700   -6.3091    0.0000 H   0  0  0  0  0  0  0  0  0  0  0  0
    2.0000    3.6191    0.0000 H   0  0  0  0  0  0  0  0  0  0  0  0
    4.8059    6.6191    0.0000 H   0  0  0  0  0  0  0  0  0  0  0  0
    8.3531   -4.8870    0.0000 H   0  0  0  0  0  0  0  0  0  0  0  0
    4.4231   -3.6919    0.0000 H   0  0  0  0  0  0  0  0  0  0  0  0
    2.5369    5.9291    0.0000 H   0  0  0  0  0  0  0  0  0  0  0  0
    6.0431   -5.4240    0.0000 H   0  0  0  0  0  0  0  0  0  0  0  0
   14.6613    2.9291    0.0000 H   0  0  0  0  0  0  0  0  0  0  0  0
   13.4662   -1.0009    0.0000 H   0  0  0  0  0  0  0  0  0  0  0  0
   15.1982    0.6191    0.0000 H   0  0  0  0  0  0  0  0  0  0  0  0
  1 24  1  0  0  0  0
  1 25  1  0  0  0  0
 21  2  1  1  0  0  0
  2 29  1  0  0  0  0
 25  3  1  6  0  0  0
  3 27  1  0  0  0  0
 22  4  1  6  0  0  0
  4 66  1  0  0  0  0
  5 25  1  0  0  0  0
  5 31  1  0  0  0  0
 23  6  1  6  0  0  0
  6 67  1  0  0  0  0
  7 26  1  0  0  0  0
  7 38  1  0  0  0  0
  8 27  2  0  0  0  0
  9 29  2  0  0  0  0
 10 31  2  0  0  0  0
 11 38  2  0  0  0  0
 12 48  1  0  0  0  0
 12 97  1  0  0  0  0
 13 49  1  0  0  0  0
 13 98  1  0  0  0  0
 14 50  1  0  0  0  0
 14 99  1  0  0  0  0
 15 51  1  0  0  0  0
 15100  1  0  0  0  0
 16 54  1  0  0  0  0
 16101  1  0  0  0  0
 17 56  1  0  0  0  0
 17102  1  0  0  0  0
 18 57  1  0  0  0  0
 18103  1  0  0  0  0
 19 58  1  0  0  0  0
 19104  1  0  0  0  0
 20 59  1  0  0  0  0
 20105  1  0  0  0  0
 21 22  1  0  0  0  0
 21 23  1  0  0  0  0
 21 60  1  0  0  0  0
 22 24  1  0  0  0  0
 22 61  1  0  0  0  0
 23 25  1  0  0  0  0
 23 62  1  0  0  0  0
 24 26  1  1  0  0  0
 24 63  1  0  0  0  0
 26 64  1  0  0  0  0
 26 65  1  0  0  0  0
 27 28  1  0  0  0  0
 28 30  1  0  0  0  0
 28 68  1  0  0  0  0
 28 69  1  0  0  0  0
 29 36  1  0  0  0  0
 30 32  1  0  0  0  0
 30 70  1  0  0  0  0
 30 71  1  0  0  0  0
 31 39  1  0  0  0  0
 32 33  1  0  0  0  0
 32 72  1  0  0  0  0
 32 73  1  0  0  0  0
 33 34  1  0  0  0  0
 33 74  1  0  0  0  0
 33 75  1  0  0  0  0
 34 35  1  0  0  0  0
 34 76  1  0  0  0  0
 34 77  1  0  0  0  0
 35 37  1  0  0  0  0
 35 78  1  0  0  0  0
 35 79  1  0  0  0  0
 36 43  2  0  0  0  0
 36 44  1  0  0  0  0
 37 40  1  0  0  0  0
 37 80  1  0  0  0  0
 37 81  1  0  0  0  0
 38 42  1  0  0  0  0
 39 45  2  0  0  0  0
 39 46  1  0  0  0  0
 40 41  1  0  0  0  0
 40 82  1  0  0  0  0
 40 83  1  0  0  0  0
 41 47  1  0  0  0  0
 41 84  1  0  0  0  0
 41 85  1  0  0  0  0
 42 52  2  0  0  0  0
 42 53  1  0  0  0  0
 43 49  1  0  0  0  0
 43 86  1  0  0  0  0
 44 48  2  0  0  0  0
 44 87  1  0  0  0  0
 45 51  1  0  0  0  0
 45 88  1  0  0  0  0
 46 50  2  0  0  0  0
 46 89  1  0  0  0  0
 47 55  1  0  0  0  0
 47 90  1  0  0  0  0
 47 91  1  0  0  0  0
 48 54  1  0  0  0  0
 49 54  2  0  0  0  0
 50 56  1  0  0  0  0
 51 56  2  0  0  0  0
 52 58  1  0  0  0  0
 52 92  1  0  0  0  0
 53 57  2  0  0  0  0
 53 93  1  0  0  0  0
 55 94  1  0  0  0  0
 55 95  1  0  0  0  0
 55 96  1  0  0  0  0
 57 59  1  0  0  0  0
 58 59  2  0  0  0  0
M  END
> <PUBCHEM_COMPOUND_CID>
129881079

> <PUBCHEM_COMPOUND_CANONICALIZED>
1

> <PUBCHEM_CACTVS_COMPLEXITY>
1330

> <PUBCHEM_CACTVS_HBOND_ACCEPTOR>
20

> <PUBCHEM_CACTVS_HBOND_DONOR>
11

> <PUBCHEM_CACTVS_ROTATABLE_BOND>
22

> <PUBCHEM_CACTVS_SUBSKEYS>
AAADcfB8PgAAAAAAAAAAAAAAAAAAAAAAAAA0YMEAAAAAAAABUAAAGgAACAAADBSgmAIyDoAABgCIAiDSCAACAAAkIAAAiAEGiMgZNzKCNRqicQElwBUPuYfK7LzOIAABCAAAQABAAAIQAACAAAAAAAAAAA==

> <PUBCHEM_IUPAC_OPENEYE_NAME>
[(2R,3R,4S,5R,6S)-6-dodecanoyloxy-3,5-dihydroxy-4,6-bis[(3,4,5-trihydroxybenzoyl)oxy]tetrahydropyran-2-yl]methyl 3,4,5-trihydroxybenzoate

> <PUBCHEM_IUPAC_CAS_NAME>
3,4,5-trihydroxybenzoic acid [(2R,3R,4S,5R,6S)-3,5-dihydroxy-6-(1-oxododecoxy)-4,6-bis[oxo-(3,4,5-trihydroxyphenyl)methoxy]-2-oxanyl]methyl ester

> <PUBCHEM_IUPAC_NAME_MARKUP>
[(2<I>R</I>,3<I>R</I>,4<I>S</I>,5<I>R</I>,6<I>S</I>)-6-dodecanoyloxy-3,5-dihydroxy-4,6-bis[(3,4,5-trihydroxybenzoyl)oxy]oxan-2-yl]methyl 3,4,5-trihydroxybenzoate

> <PUBCHEM_IUPAC_NAME>
[(2R,3R,4S,5R,6S)-6-dodecanoyloxy-3,5-dihydroxy-4,6-bis[(3,4,5-trihydroxybenzoyl)oxy]oxan-2-yl]methyl 3,4,5-trihydroxybenzoate

> <PUBCHEM_IUPAC_SYSTEMATIC_NAME>
[(2R,3R,4S,5R,6S)-6-dodecanoyloxy-3,5-bis(oxidanyl)-4,6-bis[[3,4,5-tris(oxidanyl)phenyl]carbonyloxy]oxan-2-yl]methyl 3,4,5-tris(oxidanyl)benzoate

> <PUBCHEM_IUPAC_TRADITIONAL_NAME>
3,4,5-trihydroxybenzoic acid [(2R,3R,4S,5R,6S)-4,6-digalloyloxy-3,5-dihydroxy-6-lauroyloxy-tetrahydropyran-2-yl]methyl ester

> <PUBCHEM_IUPAC_INCHI>
InChI=1S/C39H46O20/c1-2-3-4-5-6-7-8-9-10-11-29(46)58-39(59-38(54)21-16-26(44)32(49)27(45)17-21)35(51)34(56-37(53)20-14-24(42)31(48)25(43)15-20)33(50)28(57-39)18-55-36(52)19-12-22(40)30(47)23(41)13-19/h12-17,28,33-35,40-45,47-51H,2-11,18H2,1H3/t28-,33-,34+,35-,39+/m1/s1

> <PUBCHEM_IUPAC_INCHIKEY>
YAQQDUXBVWNMSZ-ZVLGKDSJSA-N

> <PUBCHEM_XLOGP3_AA>
5.3

> <PUBCHEM_EXACT_MASS>
834.258244

> <PUBCHEM_MOLECULAR_FORMULA>
C39H46O20

> <PUBCHEM_MOLECULAR_WEIGHT>
834.8

> <PUBCHEM_OPENEYE_CAN_SMILES>
CCCCCCCCCCCC(=O)OC1(C(C(C(C(O1)COC(=O)C2=CC(=C(C(=C2)O)O)O)O)OC(=O)C3=CC(=C(C(=C3)O)O)O)O)OC(=O)C4=CC(=C(C(=C4)O)O)O

> <PUBCHEM_OPENEYE_ISO_SMILES>
CCCCCCCCCCCC(=O)O[C@@]1([C@@H]([C@H]([C@@H]([C@H](O1)COC(=O)C2=CC(=C(C(=C2)O)O)O)O)OC(=O)C3=CC(=C(C(=C3)O)O)O)O)OC(=O)C4=CC(=C(C(=C4)O)O)O

> <PUBCHEM_CACTVS_TPSA>
337

> <PUBCHEM_MONOISOTOPIC_WEIGHT>
834.258244

> <PUBCHEM_TOTAL_CHARGE>
0

> <PUBCHEM_HEAVY_ATOM_COUNT>
59

> <PUBCHEM_ATOM_DEF_STEREO_COUNT>
5

> <PUBCHEM_ATOM_UDEF_STEREO_COUNT>
0

> <PUBCHEM_BOND_DEF_STEREO_COUNT>
0

> <PUBCHEM_BOND_UDEF_STEREO_COUNT>
0

> <PUBCHEM_ISOTOPIC_ATOM_COUNT>
0

> <PUBCHEM_COMPONENT_COUNT>
1

> <PUBCHEM_CACTVS_TAUTO_COUNT>
-1

> <PUBCHEM_COORDINATE_TYPE>
1
5
255

> <PUBCHEM_BONDANNOTATIONS>
21  2  5
24  26  5
25  3  6
36  43  8
36  44  8
39  45  8
39  46  8
22  4  6
42  52  8
42  53  8
43  49  8
44  48  8
45  51  8
46  50  8
48  54  8
49  54  8
50  56  8
51  56  8
52  58  8
53  57  8
57  59  8
58  59  8
23  6  6

$$$$
129881064
  -OEChem-04052116542D

 77 81  0     1  0  0  0  0  0999 V2000
    6.8884    2.0297    0.0000 O   0  0  0  0  0  0  0  0  0  0  0  0
    9.5723    2.6510    0.0000 O   0  0  0  0  0  0  0  0  0  0  0  0
    9.7285    0.8659    0.0000 O   0  0  0  0  0  0  0  0  0  0  0  0
    9.5723    1.8857    0.0000 O   0  0  0  0  0  0  0  0  0  0  0  0
    7.3418    3.5749    0.0000 O   0  0  0  0  0  0  0  0  0  0  0  0
    6.8006    3.0337    0.0000 O   0  0  0  0  0  0  0  0  0  0  0  0
    8.1131   -0.3936    0.0000 O   0  0  0  0  0  0  0  0  0  0  0  0
    6.3474   -0.6016    0.0000 O   0  0  0  0  0  0  0  0  0  0  0  0
   10.9549    3.5749    0.0000 O   0  0  0  0  0  0  0  0  0  0  0  0
    9.0842   -0.7419    0.0000 O   0  0  0  0  0  0  0  0  0  0  0  0
    7.0174    5.2059    0.0000 O   0  0  0  0  0  0  0  0  0  0  0  0
    6.1378    1.4335    0.0000 O   0  0  0  0  0  0  0  0  0  0  0  0
    4.6294   -0.8211    0.0000 O   0  0  0  0  0  0  0  0  0  0  0  0
   13.2995    0.3678    0.0000 O   0  0  0  0  0  0  0  0  0  0  0  0
   12.0109   -2.8477    0.0000 O   0  0  0  0  0  0  0  0  0  0  0  0
    2.5728    1.9728    0.0000 O   0  0  0  0  0  0  0  0  0  0  0  0
    3.8985    5.1732    0.0000 O   0  0  0  0  0  0  0  0  0  0  0  0
   13.5834   -1.6119    0.0000 O   0  0  0  0  0  0  0  0  0  0  0  0
    2.3118    3.9557    0.0000 O   0  0  0  0  0  0  0  0  0  0  0  0
    7.6500   -3.9637    0.0000 O   0  0  0  0  0  0  0  0  0  0  0  0
    4.2138   -4.4026    0.0000 O   0  0  0  0  0  0  0  0  0  0  0  0
    6.0586   -5.1751    0.0000 O   0  0  0  0  0  0  0  0  0  0  0  0
    8.8002    1.2378    0.0000 C   0  0  2  0  0  0  0  0  0  0  0  0
    8.6484    2.2683    0.0000 C   0  0  2  0  0  0  0  0  0  0  0  0
    7.9788    0.5974    0.0000 C   0  0  1  0  0  0  0  0  0  0  0  0
    7.0164    0.9960    0.0000 C   0  0  1  0  0  0  0  0  0  0  0  0
    7.7245    2.6510    0.0000 C   0  0  1  0  0  0  0  0  0  0  0  0
    6.2208    0.3903    0.0000 C   0  0  0  0  0  0  0  0  0  0  0  0
    9.9550    3.5749    0.0000 C   0  0  0  0  0  0  0  0  0  0  0  0
    9.8705   -0.1240    0.0000 C   0  0  0  0  0  0  0  0  0  0  0  0
    7.7245    4.4988    0.0000 C   0  0  0  0  0  0  0  0  0  0  0  0
    6.0073    2.4250    0.0000 C   0  0  0  0  0  0  0  0  0  0  0  0
    9.5723    4.4988    0.0000 C   0  0  0  0  0  0  0  0  0  0  0  0
    8.6484    4.8815    0.0000 C   0  0  0  0  0  0  0  0  0  0  0  0
   10.7987   -0.4960    0.0000 C   0  0  0  0  0  0  0  0  0  0  0  0
    5.5518   -1.2073    0.0000 C   0  0  0  0  0  0  0  0  0  0  0  0
    5.0834    2.8076    0.0000 C   0  0  0  0  0  0  0  0  0  0  0  0
   10.9407   -1.4858    0.0000 C   0  0  0  0  0  0  0  0  0  0  0  0
   11.5850    0.1219    0.0000 C   0  0  0  0  0  0  0  0  0  0  0  0
    5.6785   -2.1993    0.0000 C   0  0  0  0  0  0  0  0  0  0  0  0
    4.9529    3.7991    0.0000 C   0  0  0  0  0  0  0  0  0  0  0  0
    4.2900    2.1989    0.0000 C   0  0  0  0  0  0  0  0  0  0  0  0
   12.5132   -0.2501    0.0000 C   0  0  0  0  0  0  0  0  0  0  0  0
   11.8689   -1.8578    0.0000 C   0  0  0  0  0  0  0  0  0  0  0  0
    3.3662    2.5816    0.0000 C   0  0  0  0  0  0  0  0  0  0  0  0
    4.0290    4.1818    0.0000 C   0  0  0  0  0  0  0  0  0  0  0  0
    4.8828   -2.8050    0.0000 C   0  0  0  0  0  0  0  0  0  0  0  0
    6.6009   -2.5855    0.0000 C   0  0  0  0  0  0  0  0  0  0  0  0
   12.6552   -1.2399    0.0000 C   0  0  0  0  0  0  0  0  0  0  0  0
    3.2356    3.5730    0.0000 C   0  0  0  0  0  0  0  0  0  0  0  0
    6.7276   -3.5775    0.0000 C   0  0  0  0  0  0  0  0  0  0  0  0
    5.0095   -3.7969    0.0000 C   0  0  0  0  0  0  0  0  0  0  0  0
    5.9319   -4.1832    0.0000 C   0  0  0  0  0  0  0  0  0  0  0  0
    8.8871    0.6240    0.0000 H   0  0  0  0  0  0  0  0  0  0  0  0
    7.4876    0.2190    0.0000 H   0  0  0  0  0  0  0  0  0  0  0  0
    6.4450    1.2366    0.0000 H   0  0  0  0  0  0  0  0  0  0  0  0
    5.9366    0.9413    0.0000 H   0  0  0  0  0  0  0  0  0  0  0  0
    5.6287    0.2061    0.0000 H   0  0  0  0  0  0  0  0  0  0  0  0
   10.0641    2.2631    0.0000 H   0  0  0  0  0  0  0  0  0  0  0  0
    7.6227   -0.7729    0.0000 H   0  0  0  0  0  0  0  0  0  0  0  0
   10.0107    4.9372    0.0000 H   0  0  0  0  0  0  0  0  0  0  0  0
    8.6484    5.5015    0.0000 H   0  0  0  0  0  0  0  0  0  0  0  0
   10.4532   -1.8689    0.0000 H   0  0  0  0  0  0  0  0  0  0  0  0
   11.4969    0.7356    0.0000 H   0  0  0  0  0  0  0  0  0  0  0  0
    5.4447    4.1765    0.0000 H   0  0  0  0  0  0  0  0  0  0  0  0
    4.3710    1.5842    0.0000 H   0  0  0  0  0  0  0  0  0  0  0  0
    4.3109   -2.5655    0.0000 H   0  0  0  0  0  0  0  0  0  0  0  0
    7.0942   -2.2100    0.0000 H   0  0  0  0  0  0  0  0  0  0  0  0
   13.8750    0.1372    0.0000 H   0  0  0  0  0  0  0  0  0  0  0  0
   11.5234   -3.2308    0.0000 H   0  0  0  0  0  0  0  0  0  0  0  0
    2.0000    2.2100    0.0000 H   0  0  0  0  0  0  0  0  0  0  0  0
    4.3903    5.5506    0.0000 H   0  0  0  0  0  0  0  0  0  0  0  0
   13.6715   -2.2256    0.0000 H   0  0  0  0  0  0  0  0  0  0  0  0
    2.2308    4.5704    0.0000 H   0  0  0  0  0  0  0  0  0  0  0  0
    7.7285   -4.5787    0.0000 H   0  0  0  0  0  0  0  0  0  0  0  0
    3.6419   -4.1632    0.0000 H   0  0  0  0  0  0  0  0  0  0  0  0
    5.5652   -5.5506    0.0000 H   0  0  0  0  0  0  0  0  0  0  0  0
  1 26  1  0  0  0  0
  1 27  1  0  0  0  0
  2 24  1  0  0  0  0
  2 29  1  0  0  0  0
 23  3  1  1  0  0  0
  3 30  1  0  0  0  0
 24  4  1  1  0  0  0
  4 59  1  0  0  0  0
  5 27  1  0  0  0  0
  5 31  1  0  0  0  0
 27  6  1  1  0  0  0
  6 32  1  0  0  0  0
 25  7  1  6  0  0  0
  7 60  1  0  0  0  0
  8 28  1  0  0  0  0
  8 36  1  0  0  0  0
  9 29  2  0  0  0  0
 10 30  2  0  0  0  0
 11 31  2  0  0  0  0
 12 32  2  0  0  0  0
 13 36  2  0  0  0  0
 14 43  1  0  0  0  0
 14 69  1  0  0  0  0
 15 44  1  0  0  0  0
 15 70  1  0  0  0  0
 16 45  1  0  0  0  0
 16 71  1  0  0  0  0
 17 46  1  0  0  0  0
 17 72  1  0  0  0  0
 18 49  1  0  0  0  0
 18 73  1  0  0  0  0
 19 50  1  0  0  0  0
 19 74  1  0  0  0  0
 20 51  1  0  0  0  0
 20 75  1  0  0  0  0
 21 52  1  0  0  0  0
 21 76  1  0  0  0  0
 22 53  1  0  0  0  0
 22 77  1  0  0  0  0
 23 24  1  0  0  0  0
 23 25  1  0  0  0  0
 23 54  1  0  0  0  0
 24 27  1  0  0  0  0
 25 26  1  0  0  0  0
 25 55  1  0  0  0  0
 26 28  1  1  0  0  0
 26 56  1  0  0  0  0
 28 57  1  0  0  0  0
 28 58  1  0  0  0  0
 29 33  1  0  0  0  0
 30 35  1  0  0  0  0
 31 34  1  0  0  0  0
 32 37  1  0  0  0  0
 33 34  2  0  0  0  0
 33 61  1  0  0  0  0
 34 62  1  0  0  0  0
 35 38  2  0  0  0  0
 35 39  1  0  0  0  0
 36 40  1  0  0  0  0
 37 41  2  0  0  0  0
 37 42  1  0  0  0  0
 38 44  1  0  0  0  0
 38 63  1  0  0  0  0
 39 43  2  0  0  0  0
 39 64  1  0  0  0  0
 40 47  2  0  0  0  0
 40 48  1  0  0  0  0
 41 46  1  0  0  0  0
 41 65  1  0  0  0  0
 42 45  2  0  0  0  0
 42 66  1  0  0  0  0
 43 49  1  0  0  0  0
 44 49  2  0  0  0  0
 45 50  1  0  0  0  0
 46 50  2  0  0  0  0
 47 52  1  0  0  0  0
 47 67  1  0  0  0  0
 48 51  2  0  0  0  0
 48 68  1  0  0  0  0
 51 53  1  0  0  0  0
 52 53  2  0  0  0  0
M  END
> <PUBCHEM_COMPOUND_CID>
129881064

> <PUBCHEM_COMPOUND_CANONICALIZED>
1

> <PUBCHEM_CACTVS_COMPLEXITY>
1400

> <PUBCHEM_CACTVS_HBOND_ACCEPTOR>
22

> <PUBCHEM_CACTVS_HBOND_DONOR>
11

> <PUBCHEM_CACTVS_ROTATABLE_BOND>
10

> <PUBCHEM_CACTVS_SUBSKEYS>
AAADceB4PgAAAAAAAAAAAAAAAAAAAAAAAAA0YMEAAAAQAAABUAAAGgAACAAADBSgmAIwDoAABgCIAiDSCAACAAAkIAAIiAEGiMgZNzKCNRqicQElwBUPuYfK7DzOIAABCAAAQABAAAIQAACAAAAAAAAAAA==

> <PUBCHEM_IUPAC_OPENEYE_NAME>
[(2R,3R,4S,4aR,7Z,10aS)-3,4a-dihydroxy-6,9-dioxo-4,10a-bis[(3,4,5-trihydroxybenzoyl)oxy]-3,4-dihydro-2H-pyrano[2,3-b][1,4]dioxocin-2-yl]methyl 3,4,5-trihydroxybenzoate

> <PUBCHEM_IUPAC_CAS_NAME>
3,4,5-trihydroxybenzoic acid [(2R,3R,4S,4aR,7Z,10aS)-3,4a-dihydroxy-6,9-dioxo-4,10a-bis[oxo-(3,4,5-trihydroxyphenyl)methoxy]-3,4-dihydro-2H-pyrano[2,3-b][1,4]dioxocin-2-yl]methyl ester

> <PUBCHEM_IUPAC_NAME_MARKUP>
[(2<I>R</I>,3<I>R</I>,4<I>S</I>,4<I>a</I><I>R</I>,7<I>Z</I>,10<I>a</I><I>S</I>)-3,4<I>a</I>-dihydroxy-6,9-dioxo-4,10<I>a</I>-bis[(3,4,5-trihydroxybenzoyl)oxy]-3,4-dihydro-2<I>H</I>-pyrano[2,3-b][1,4]dioxocin-2-yl]methyl 3,4,5-trihydroxybenzoate

> <PUBCHEM_IUPAC_NAME>
[(2R,3R,4S,4aR,7Z,10aS)-3,4a-dihydroxy-6,9-dioxo-4,10a-bis[(3,4,5-trihydroxybenzoyl)oxy]-3,4-dihydro-2H-pyrano[2,3-b][1,4]dioxocin-2-yl]methyl 3,4,5-trihydroxybenzoate

> <PUBCHEM_IUPAC_SYSTEMATIC_NAME>
[(2R,3R,4S,4aR,7Z,10aS)-3,4a-bis(oxidanyl)-6,9-bis(oxidanylidene)-4,10a-bis[[3,4,5-tris(oxidanyl)phenyl]carbonyloxy]-3,4-dihydro-2H-pyrano[2,3-b][1,4]dioxocin-2-yl]methyl 3,4,5-tris(oxidanyl)benzoate

> <PUBCHEM_IUPAC_TRADITIONAL_NAME>
3,4,5-trihydroxybenzoic acid [(2R,3R,4S,4aR,7Z,10aS)-4,10a-digalloyloxy-3,4a-dihydroxy-6,9-diketo-3,4-dihydro-2H-pyrano[2,3-b][1,4]dioxocin-2-yl]methyl ester

> <PUBCHEM_IUPAC_INCHI>
InChI=1S/C31H24O22/c32-13-3-10(4-14(33)22(13)40)27(44)48-9-19-25(43)26(49-28(45)11-5-15(34)23(41)16(35)6-11)30(47)31(50-19,52-21(39)2-1-20(38)51-30)53-29(46)12-7-17(36)24(42)18(37)8-12/h1-8,19,25-26,32-37,40-43,47H,9H2/b2-1-/t19-,25-,26+,30-,31+/m1/s1

> <PUBCHEM_IUPAC_INCHIKEY>
PZPRMUCWQRNPPX-WGYALLSLSA-N

> <PUBCHEM_XLOGP3_AA>
-0.1

> <PUBCHEM_EXACT_MASS>
748.075922

> <PUBCHEM_MOLECULAR_FORMULA>
C31H24O22

> <PUBCHEM_MOLECULAR_WEIGHT>
748.5

> <PUBCHEM_OPENEYE_CAN_SMILES>
C1=CC(=O)OC2(C(C(C(C(O2)COC(=O)C3=CC(=C(C(=C3)O)O)O)O)OC(=O)C4=CC(=C(C(=C4)O)O)O)(OC1=O)O)OC(=O)C5=CC(=C(C(=C5)O)O)O

> <PUBCHEM_OPENEYE_ISO_SMILES>
C\1=C\C(=O)O[C@@]2([C@@]([C@H]([C@@H]([C@H](O2)COC(=O)C3=CC(=C(C(=C3)O)O)O)O)OC(=O)C4=CC(=C(C(=C4)O)O)O)(OC1=O)O)OC(=O)C5=CC(=C(C(=C5)O)O)O

> <PUBCHEM_CACTVS_TPSA>
363

> <PUBCHEM_MONOISOTOPIC_WEIGHT>
748.075922

> <PUBCHEM_TOTAL_CHARGE>
0

> <PUBCHEM_HEAVY_ATOM_COUNT>
53

> <PUBCHEM_ATOM_DEF_STEREO_COUNT>
5

> <PUBCHEM_ATOM_UDEF_STEREO_COUNT>
0

> <PUBCHEM_BOND_DEF_STEREO_COUNT>
1

> <PUBCHEM_BOND_UDEF_STEREO_COUNT>
0

> <PUBCHEM_ISOTOPIC_ATOM_COUNT>
0

> <PUBCHEM_COMPONENT_COUNT>
1

> <PUBCHEM_CACTVS_TAUTO_COUNT>
-1

> <PUBCHEM_COORDINATE_TYPE>
1
5
255

> <PUBCHEM_BONDANNOTATIONS>
26  28  5
23  3  5
35  38  8
35  39  8
37  41  8
37  42  8
38  44  8
39  43  8
24  4  5
40  47  8
40  48  8
41  46  8
42  45  8
43  49  8
44  49  8
45  50  8
46  50  8
47  52  8
48  51  8
51  53  8
52  53  8
27  6  5
25  7  6

$$$$
129844450
  -OEChem-04052116542D

 85 89  0     1  0  0  0  0  0999 V2000
    8.5991    0.2115    0.0000 O   0  0  0  0  0  0  0  0  0  0  0  0
    6.0010    1.7115    0.0000 O   0  0  0  0  0  0  0  0  0  0  0  0
    7.7331    2.7115    0.0000 O   0  0  0  0  0  0  0  0  0  0  0  0
    7.2331   -1.1545    0.0000 O   0  0  0  0  0  0  0  0  0  0  0  0
    8.2331   -1.1545    0.0000 O   0  0  0  0  0  0  0  0  0  0  0  0
    6.0010   -0.2885    0.0000 O   0  0  0  0  0  0  0  0  0  0  0  0
   10.3312    1.2115    0.0000 O   0  0  0  0  0  0  0  0  0  0  0  0
    6.8671    3.2115    0.0000 O   0  0  0  0  0  0  0  0  0  0  0  0
    8.7331   -2.0205    0.0000 O   0  0  0  0  0  0  0  0  0  0  0  0
    9.7331   -0.2885    0.0000 O   0  0  0  0  0  0  0  0  0  0  0  0
   11.1972    2.7115    0.0000 O   0  0  0  0  0  0  0  0  0  0  0  0
    2.5369    2.7115    0.0000 O   0  0  0  0  0  0  0  0  0  0  0  0
    4.2690    5.7115    0.0000 O   0  0  0  0  0  0  0  0  0  0  0  0
    7.7331   -5.4846    0.0000 O   0  0  0  0  0  0  0  0  0  0  0  0
   12.2331   -2.8865    0.0000 O   0  0  0  0  0  0  0  0  0  0  0  0
    4.7331   -3.7526    0.0000 O   0  0  0  0  0  0  0  0  0  0  0  0
    9.2331   -4.6186    0.0000 O   0  0  0  0  0  0  0  0  0  0  0  0
    2.5369    4.7115    0.0000 O   0  0  0  0  0  0  0  0  0  0  0  0
    5.7331   -5.4846    0.0000 O   0  0  0  0  0  0  0  0  0  0  0  0
   11.2331   -4.6186    0.0000 O   0  0  0  0  0  0  0  0  0  0  0  0
   14.6613    1.7115    0.0000 O   0  0  0  0  0  0  0  0  0  0  0  0
   12.9292   -1.2885    0.0000 O   0  0  0  0  0  0  0  0  0  0  0  0
   14.6613   -0.2885    0.0000 O   0  0  0  0  0  0  0  0  0  0  0  0
    6.8671    1.2115    0.0000 C   0  0  1  0  0  0  0  0  0  0  0  0
    7.7331    1.7115    0.0000 C   0  0  1  0  0  0  0  0  0  0  0  0
    6.8671    0.2115    0.0000 C   0  0  2  0  0  0  0  0  0  0  0  0
    8.5991    1.2115    0.0000 C   0  0  1  0  0  0  0  0  0  0  0  0
    7.7331   -0.2885    0.0000 C   0  0  0  0  0  0  0  0  0  0  0  0
    9.4651    1.7115    0.0000 C   0  0  0  0  0  0  0  0  0  0  0  0
    6.0010    2.7115    0.0000 C   0  0  0  0  0  0  0  0  0  0  0  0
    7.7331   -2.0205    0.0000 C   0  0  0  0  0  0  0  0  0  0  0  0
    9.2331   -1.1545    0.0000 C   0  0  0  0  0  0  0  0  0  0  0  0
    5.1350    3.2115    0.0000 C   0  0  0  0  0  0  0  0  0  0  0  0
   11.1972    1.7115    0.0000 C   0  0  0  0  0  0  0  0  0  0  0  0
    7.2331   -2.8865    0.0000 C   0  0  0  0  0  0  0  0  0  0  0  0
    9.7331   -2.0205    0.0000 C   0  0  0  0  0  0  0  0  0  0  0  0
   12.0632    1.2115    0.0000 C   0  0  0  0  0  0  0  0  0  0  0  0
    5.1350    4.2115    0.0000 C   0  0  0  0  0  0  0  0  0  0  0  0
    4.2690    2.7115    0.0000 C   0  0  0  0  0  0  0  0  0  0  0  0
    6.2331   -2.8865    0.0000 C   0  0  0  0  0  0  0  0  0  0  0  0
    9.2331   -2.8865    0.0000 C   0  0  0  0  0  0  0  0  0  0  0  0
    7.7331   -3.7526    0.0000 C   0  0  0  0  0  0  0  0  0  0  0  0
   10.7331   -2.0205    0.0000 C   0  0  0  0  0  0  0  0  0  0  0  0
    3.4030    3.2115    0.0000 C   0  0  0  0  0  0  0  0  0  0  0  0
    4.2690    4.7115    0.0000 C   0  0  0  0  0  0  0  0  0  0  0  0
   12.0632    0.2115    0.0000 C   0  0  0  0  0  0  0  0  0  0  0  0
   12.9292    1.7115    0.0000 C   0  0  0  0  0  0  0  0  0  0  0  0
    7.2331   -4.6186    0.0000 C   0  0  0  0  0  0  0  0  0  0  0  0
   11.2331   -2.8865    0.0000 C   0  0  0  0  0  0  0  0  0  0  0  0
    5.7331   -3.7526    0.0000 C   0  0  0  0  0  0  0  0  0  0  0  0
    9.7331   -3.7526    0.0000 C   0  0  0  0  0  0  0  0  0  0  0  0
    3.4030    4.2115    0.0000 C   0  0  0  0  0  0  0  0  0  0  0  0
    6.2331   -4.6186    0.0000 C   0  0  0  0  0  0  0  0  0  0  0  0
   10.7331   -3.7526    0.0000 C   0  0  0  0  0  0  0  0  0  0  0  0
   13.7953    1.2115    0.0000 C   0  0  0  0  0  0  0  0  0  0  0  0
   12.9292   -0.2885    0.0000 C   0  0  0  0  0  0  0  0  0  0  0  0
   13.7953    0.2115    0.0000 C   0  0  0  0  0  0  0  0  0  0  0  0
    6.8671    1.8315    0.0000 H   0  0  0  0  0  0  0  0  0  0  0  0
    8.2700    2.0215    0.0000 H   0  0  0  0  0  0  0  0  0  0  0  0
    6.3301    0.5215    0.0000 H   0  0  0  0  0  0  0  0  0  0  0  0
    9.1360    0.9015    0.0000 H   0  0  0  0  0  0  0  0  0  0  0  0
    9.8637    2.1865    0.0000 H   0  0  0  0  0  0  0  0  0  0  0  0
    9.0666    2.1865    0.0000 H   0  0  0  0  0  0  0  0  0  0  0  0
    8.2700    3.0215    0.0000 H   0  0  0  0  0  0  0  0  0  0  0  0
    5.4641    0.0215    0.0000 H   0  0  0  0  0  0  0  0  0  0  0  0
    5.6720    4.5215    0.0000 H   0  0  0  0  0  0  0  0  0  0  0  0
    4.2690    2.0915    0.0000 H   0  0  0  0  0  0  0  0  0  0  0  0
    5.9231   -2.3496    0.0000 H   0  0  0  0  0  0  0  0  0  0  0  0
    8.6131   -2.8865    0.0000 H   0  0  0  0  0  0  0  0  0  0  0  0
    8.3531   -3.7526    0.0000 H   0  0  0  0  0  0  0  0  0  0  0  0
   11.0431   -1.4836    0.0000 H   0  0  0  0  0  0  0  0  0  0  0  0
   11.5263   -0.0985    0.0000 H   0  0  0  0  0  0  0  0  0  0  0  0
   12.9292    2.3315    0.0000 H   0  0  0  0  0  0  0  0  0  0  0  0
    2.0000    3.0215    0.0000 H   0  0  0  0  0  0  0  0  0  0  0  0
    4.8059    6.0215    0.0000 H   0  0  0  0  0  0  0  0  0  0  0  0
    7.4231   -6.0215    0.0000 H   0  0  0  0  0  0  0  0  0  0  0  0
   12.5431   -3.4235    0.0000 H   0  0  0  0  0  0  0  0  0  0  0  0
    4.4231   -3.2156    0.0000 H   0  0  0  0  0  0  0  0  0  0  0  0
    9.5431   -5.1555    0.0000 H   0  0  0  0  0  0  0  0  0  0  0  0
    2.5369    5.3315    0.0000 H   0  0  0  0  0  0  0  0  0  0  0  0
    5.1131   -5.4846    0.0000 H   0  0  0  0  0  0  0  0  0  0  0  0
   11.8531   -4.6186    0.0000 H   0  0  0  0  0  0  0  0  0  0  0  0
   14.6613    2.3315    0.0000 H   0  0  0  0  0  0  0  0  0  0  0  0
   13.4662   -1.5985    0.0000 H   0  0  0  0  0  0  0  0  0  0  0  0
   15.1982    0.0215    0.0000 H   0  0  0  0  0  0  0  0  0  0  0  0
  1 27  1  0  0  0  0
  1 28  1  0  0  0  0
 24  2  1  1  0  0  0
  2 30  1  0  0  0  0
 25  3  1  6  0  0  0
  3 64  1  0  0  0  0
  4 28  1  0  0  0  0
  4 31  1  0  0  0  0
  5 28  1  0  0  0  0
  5 32  1  0  0  0  0
 26  6  1  6  0  0  0
  6 65  1  0  0  0  0
  7 29  1  0  0  0  0
  7 34  1  0  0  0  0
  8 30  2  0  0  0  0
  9 31  2  0  0  0  0
 10 32  2  0  0  0  0
 11 34  2  0  0  0  0
 12 44  1  0  0  0  0
 12 74  1  0  0  0  0
 13 45  1  0  0  0  0
 13 75  1  0  0  0  0
 14 48  1  0  0  0  0
 14 76  1  0  0  0  0
 15 49  1  0  0  0  0
 15 77  1  0  0  0  0
 16 50  1  0  0  0  0
 16 78  1  0  0  0  0
 17 51  1  0  0  0  0
 17 79  1  0  0  0  0
 18 52  1  0  0  0  0
 18 80  1  0  0  0  0
 19 53  1  0  0  0  0
 19 81  1  0  0  0  0
 20 54  1  0  0  0  0
 20 82  1  0  0  0  0
 21 55  1  0  0  0  0
 21 83  1  0  0  0  0
 22 56  1  0  0  0  0
 22 84  1  0  0  0  0
 23 57  1  0  0  0  0
 23 85  1  0  0  0  0
 24 25  1  0  0  0  0
 24 26  1  0  0  0  0
 24 58  1  0  0  0  0
 25 27  1  0  0  0  0
 25 59  1  0  0  0  0
 26 28  1  0  0  0  0
 26 60  1  0  0  0  0
 27 29  1  1  0  0  0
 27 61  1  0  0  0  0
 29 62  1  0  0  0  0
 29 63  1  0  0  0  0
 30 33  1  0  0  0  0
 31 35  1  0  0  0  0
 32 36  1  0  0  0  0
 33 38  2  0  0  0  0
 33 39  1  0  0  0  0
 34 37  1  0  0  0  0
 35 40  2  0  0  0  0
 35 42  1  0  0  0  0
 36 41  2  0  0  0  0
 36 43  1  0  0  0  0
 37 46  2  0  0  0  0
 37 47  1  0  0  0  0
 38 45  1  0  0  0  0
 38 66  1  0  0  0  0
 39 44  2  0  0  0  0
 39 67  1  0  0  0  0
 40 50  1  0  0  0  0
 40 68  1  0  0  0  0
 41 51  1  0  0  0  0
 41 69  1  0  0  0  0
 42 48  2  0  0  0  0
 42 70  1  0  0  0  0
 43 49  2  0  0  0  0
 43 71  1  0  0  0  0
 44 52  1  0  0  0  0
 45 52  2  0  0  0  0
 46 56  1  0  0  0  0
 46 72  1  0  0  0  0
 47 55  2  0  0  0  0
 47 73  1  0  0  0  0
 48 53  1  0  0  0  0
 49 54  1  0  0  0  0
 50 53  2  0  0  0  0
 51 54  2  0  0  0  0
 55 57  1  0  0  0  0
 56 57  2  0  0  0  0
M  END
> <PUBCHEM_COMPOUND_CID>
129844450

> <PUBCHEM_COMPOUND_CANONICALIZED>
1

> <PUBCHEM_CACTVS_COMPLEXITY>
1340

> <PUBCHEM_CACTVS_HBOND_ACCEPTOR>
23

> <PUBCHEM_CACTVS_HBOND_DONOR>
14

> <PUBCHEM_CACTVS_ROTATABLE_BOND>
13

> <PUBCHEM_CACTVS_SUBSKEYS>
AAADceB8PgAAAAAAAAAAAAAAAAAAAAAAAAA0YMGCAAAAAAABVAAAGgAACAAADBSgmAIwDoAABgCIAiDSCAACAAAkIAAAiAEGiMgZNzKCNRqicQElwBUPuYfK7DzOIAABCAAAQABAAAIQAACAAAAAAAAAAA==

> <PUBCHEM_IUPAC_OPENEYE_NAME>
[(2R,3R,4S,5R)-3,5-dihydroxy-4,6,6-tris[(3,4,5-trihydroxybenzoyl)oxy]tetrahydropyran-2-yl]methyl 3,4,5-trihydroxybenzoate

> <PUBCHEM_IUPAC_CAS_NAME>
3,4,5-trihydroxybenzoic acid [(2R,3R,4S,5R)-3,5-dihydroxy-4,6,6-tris[oxo-(3,4,5-trihydroxyphenyl)methoxy]-2-oxanyl]methyl ester

> <PUBCHEM_IUPAC_NAME_MARKUP>
[(2<I>R</I>,3<I>R</I>,4<I>S</I>,5<I>R</I>)-3,5-dihydroxy-4,6,6-tris[(3,4,5-trihydroxybenzoyl)oxy]oxan-2-yl]methyl 3,4,5-trihydroxybenzoate

> <PUBCHEM_IUPAC_NAME>
[(2R,3R,4S,5R)-3,5-dihydroxy-4,6,6-tris[(3,4,5-trihydroxybenzoyl)oxy]oxan-2-yl]methyl 3,4,5-trihydroxybenzoate

> <PUBCHEM_IUPAC_SYSTEMATIC_NAME>
[(2R,3R,4S,5R)-3,5-bis(oxidanyl)-4,6,6-tris[[3,4,5-tris(oxidanyl)phenyl]carbonyloxy]oxan-2-yl]methyl 3,4,5-tris(oxidanyl)benzoate

> <PUBCHEM_IUPAC_TRADITIONAL_NAME>
3,4,5-trihydroxybenzoic acid [(2R,3R,4S,5R)-4,6,6-trigalloyloxy-3,5-dihydroxy-tetrahydropyran-2-yl]methyl ester

> <PUBCHEM_IUPAC_INCHI>
InChI=1S/C34H28O23/c35-14-1-10(2-15(36)23(14)43)30(49)53-9-22-27(47)28(54-31(50)11-3-16(37)24(44)17(38)4-11)29(48)34(55-22,56-32(51)12-5-18(39)25(45)19(40)6-12)57-33(52)13-7-20(41)26(46)21(42)8-13/h1-8,22,27-29,35-48H,9H2/t22-,27-,28+,29-/m1/s1

> <PUBCHEM_IUPAC_INCHIKEY>
MNEREJWVHFDEGA-GGRYPKIFSA-N

> <PUBCHEM_XLOGP3_AA>
0.8

> <PUBCHEM_EXACT_MASS>
804.102137

> <PUBCHEM_MOLECULAR_FORMULA>
C34H28O23

> <PUBCHEM_MOLECULAR_WEIGHT>
804.6

> <PUBCHEM_OPENEYE_CAN_SMILES>
C1=C(C=C(C(=C1O)O)O)C(=O)OCC2C(C(C(C(O2)(OC(=O)C3=CC(=C(C(=C3)O)O)O)OC(=O)C4=CC(=C(C(=C4)O)O)O)O)OC(=O)C5=CC(=C(C(=C5)O)O)O)O

> <PUBCHEM_OPENEYE_ISO_SMILES>
C1=C(C=C(C(=C1O)O)O)C(=O)OC[C@@H]2[C@H]([C@@H]([C@H](C(O2)(OC(=O)C3=CC(=C(C(=C3)O)O)O)OC(=O)C4=CC(=C(C(=C4)O)O)O)O)OC(=O)C5=CC(=C(C(=C5)O)O)O)O

> <PUBCHEM_CACTVS_TPSA>
398

> <PUBCHEM_MONOISOTOPIC_WEIGHT>
804.102137

> <PUBCHEM_TOTAL_CHARGE>
0

> <PUBCHEM_HEAVY_ATOM_COUNT>
57

> <PUBCHEM_ATOM_DEF_STEREO_COUNT>
4

> <PUBCHEM_ATOM_UDEF_STEREO_COUNT>
0

> <PUBCHEM_BOND_DEF_STEREO_COUNT>
0

> <PUBCHEM_BOND_UDEF_STEREO_COUNT>
0

> <PUBCHEM_ISOTOPIC_ATOM_COUNT>
0

> <PUBCHEM_COMPONENT_COUNT>
1

> <PUBCHEM_CACTVS_TAUTO_COUNT>
-1

> <PUBCHEM_COORDINATE_TYPE>
1
5
255

> <PUBCHEM_BONDANNOTATIONS>
24  2  5
27  29  5
25  3  6
33  38  8
33  39  8
35  40  8
35  42  8
36  41  8
36  43  8
37  46  8
37  47  8
38  45  8
39  44  8
40  50  8
41  51  8
42  48  8
43  49  8
44  52  8
45  52  8
46  56  8
47  55  8
48  53  8
49  54  8
50  53  8
51  54  8
55  57  8
56  57  8
26  6  6

$$$$
129844314
  -OEChem-04052116542D

 74 77  0     1  0  0  0  0  0999 V2000
    8.5991    0.2115    0.0000 O   0  0  0  0  0  0  0  0  0  0  0  0
    6.0010    1.7115    0.0000 O   0  0  0  0  0  0  0  0  0  0  0  0
    7.7331    2.7115    0.0000 O   0  0  0  0  0  0  0  0  0  0  0  0
    7.2331   -1.1545    0.0000 O   0  0  0  0  0  0  0  0  0  0  0  0
    6.0010   -0.2885    0.0000 O   0  0  0  0  0  0  0  0  0  0  0  0
    8.2331   -1.1545    0.0000 O   0  0  0  0  0  0  0  0  0  0  0  0
   10.3312    1.2115    0.0000 O   0  0  0  0  0  0  0  0  0  0  0  0
    6.8671    3.2115    0.0000 O   0  0  0  0  0  0  0  0  0  0  0  0
    8.7331   -2.0205    0.0000 O   0  0  0  0  0  0  0  0  0  0  0  0
    9.7331   -0.2885    0.0000 O   0  0  0  0  0  0  0  0  0  0  0  0
   11.1972    2.7115    0.0000 O   0  0  0  0  0  0  0  0  0  0  0  0
    2.5369    2.7115    0.0000 O   0  0  0  0  0  0  0  0  0  0  0  0
    4.2690    5.7115    0.0000 O   0  0  0  0  0  0  0  0  0  0  0  0
    7.7331   -5.4846    0.0000 O   0  0  0  0  0  0  0  0  0  0  0  0
    4.7331   -3.7526    0.0000 O   0  0  0  0  0  0  0  0  0  0  0  0
    2.5369    4.7115    0.0000 O   0  0  0  0  0  0  0  0  0  0  0  0
    5.7331   -5.4846    0.0000 O   0  0  0  0  0  0  0  0  0  0  0  0
   14.6613    1.7115    0.0000 O   0  0  0  0  0  0  0  0  0  0  0  0
   12.9292   -1.2885    0.0000 O   0  0  0  0  0  0  0  0  0  0  0  0
   14.6613   -0.2885    0.0000 O   0  0  0  0  0  0  0  0  0  0  0  0
    9.7331   -2.0205    0.0000 N   0  0  0  0  0  0  0  0  0  0  0  0
    6.8671    1.2115    0.0000 C   0  0  1  0  0  0  0  0  0  0  0  0
    7.7331    1.7115    0.0000 C   0  0  1  0  0  0  0  0  0  0  0  0
    6.8671    0.2115    0.0000 C   0  0  2  0  0  0  0  0  0  0  0  0
    8.5991    1.2115    0.0000 C   0  0  1  0  0  0  0  0  0  0  0  0
    7.7331   -0.2885    0.0000 C   0  0  1  0  0  0  0  0  0  0  0  0
    9.4651    1.7115    0.0000 C   0  0  0  0  0  0  0  0  0  0  0  0
    6.0010    2.7115    0.0000 C   0  0  0  0  0  0  0  0  0  0  0  0
    7.7331   -2.0205    0.0000 C   0  0  0  0  0  0  0  0  0  0  0  0
    9.2331   -1.1545    0.0000 C   0  0  0  0  0  0  0  0  0  0  0  0
    5.1350    3.2115    0.0000 C   0  0  0  0  0  0  0  0  0  0  0  0
   11.1972    1.7115    0.0000 C   0  0  0  0  0  0  0  0  0  0  0  0
    7.2331   -2.8865    0.0000 C   0  0  0  0  0  0  0  0  0  0  0  0
   12.0632    1.2115    0.0000 C   0  0  0  0  0  0  0  0  0  0  0  0
    5.1350    4.2115    0.0000 C   0  0  0  0  0  0  0  0  0  0  0  0
    4.2690    2.7115    0.0000 C   0  0  0  0  0  0  0  0  0  0  0  0
    6.2331   -2.8865    0.0000 C   0  0  0  0  0  0  0  0  0  0  0  0
    7.7331   -3.7526    0.0000 C   0  0  0  0  0  0  0  0  0  0  0  0
    3.4030    3.2115    0.0000 C   0  0  0  0  0  0  0  0  0  0  0  0
    4.2690    4.7115    0.0000 C   0  0  0  0  0  0  0  0  0  0  0  0
   12.0632    0.2115    0.0000 C   0  0  0  0  0  0  0  0  0  0  0  0
   12.9292    1.7115    0.0000 C   0  0  0  0  0  0  0  0  0  0  0  0
    7.2331   -4.6186    0.0000 C   0  0  0  0  0  0  0  0  0  0  0  0
    5.7331   -3.7526    0.0000 C   0  0  0  0  0  0  0  0  0  0  0  0
    3.4030    4.2115    0.0000 C   0  0  0  0  0  0  0  0  0  0  0  0
    6.2331   -4.6186    0.0000 C   0  0  0  0  0  0  0  0  0  0  0  0
   13.7953    1.2115    0.0000 C   0  0  0  0  0  0  0  0  0  0  0  0
   12.9292   -0.2885    0.0000 C   0  0  0  0  0  0  0  0  0  0  0  0
   13.7953    0.2115    0.0000 C   0  0  0  0  0  0  0  0  0  0  0  0
    6.8671    1.8315    0.0000 H   0  0  0  0  0  0  0  0  0  0  0  0
    8.2700    2.0215    0.0000 H   0  0  0  0  0  0  0  0  0  0  0  0
    6.3301    0.5215    0.0000 H   0  0  0  0  0  0  0  0  0  0  0  0
    9.1360    0.9015    0.0000 H   0  0  0  0  0  0  0  0  0  0  0  0
    9.8637    2.1865    0.0000 H   0  0  0  0  0  0  0  0  0  0  0  0
    9.0666    2.1865    0.0000 H   0  0  0  0  0  0  0  0  0  0  0  0
    8.2700    3.0215    0.0000 H   0  0  0  0  0  0  0  0  0  0  0  0
    5.4641    0.0215    0.0000 H   0  0  0  0  0  0  0  0  0  0  0  0
   10.3531   -2.0205    0.0000 H   0  0  0  0  0  0  0  0  0  0  0  0
    9.4231   -2.5574    0.0000 H   0  0  0  0  0  0  0  0  0  0  0  0
    5.6720    4.5215    0.0000 H   0  0  0  0  0  0  0  0  0  0  0  0
    4.2690    2.0915    0.0000 H   0  0  0  0  0  0  0  0  0  0  0  0
    5.9231   -2.3496    0.0000 H   0  0  0  0  0  0  0  0  0  0  0  0
    8.3531   -3.7526    0.0000 H   0  0  0  0  0  0  0  0  0  0  0  0
   11.5263   -0.0985    0.0000 H   0  0  0  0  0  0  0  0  0  0  0  0
   12.9292    2.3315    0.0000 H   0  0  0  0  0  0  0  0  0  0  0  0
    2.0000    3.0215    0.0000 H   0  0  0  0  0  0  0  0  0  0  0  0
    4.8059    6.0215    0.0000 H   0  0  0  0  0  0  0  0  0  0  0  0
    8.3531   -5.4846    0.0000 H   0  0  0  0  0  0  0  0  0  0  0  0
    4.4231   -4.2895    0.0000 H   0  0  0  0  0  0  0  0  0  0  0  0
    2.5369    5.3315    0.0000 H   0  0  0  0  0  0  0  0  0  0  0  0
    6.0431   -6.0215    0.0000 H   0  0  0  0  0  0  0  0  0  0  0  0
   14.6613    2.3315    0.0000 H   0  0  0  0  0  0  0  0  0  0  0  0
   13.4662   -1.5985    0.0000 H   0  0  0  0  0  0  0  0  0  0  0  0
   15.1982    0.0215    0.0000 H   0  0  0  0  0  0  0  0  0  0  0  0
  1 25  1  0  0  0  0
  1 26  1  0  0  0  0
 22  2  1  1  0  0  0
  2 28  1  0  0  0  0
 23  3  1  6  0  0  0
  3 56  1  0  0  0  0
  4 26  1  0  0  0  0
  4 29  1  0  0  0  0
 24  5  1  6  0  0  0
  5 57  1  0  0  0  0
 26  6  1  1  0  0  0
  6 30  1  0  0  0  0
  7 27  1  0  0  0  0
  7 32  1  0  0  0  0
  8 28  2  0  0  0  0
  9 29  2  0  0  0  0
 10 30  2  0  0  0  0
 11 32  2  0  0  0  0
 12 39  1  0  0  0  0
 12 66  1  0  0  0  0
 13 40  1  0  0  0  0
 13 67  1  0  0  0  0
 14 43  1  0  0  0  0
 14 68  1  0  0  0  0
 15 44  1  0  0  0  0
 15 69  1  0  0  0  0
 16 45  1  0  0  0  0
 16 70  1  0  0  0  0
 17 46  1  0  0  0  0
 17 71  1  0  0  0  0
 18 47  1  0  0  0  0
 18 72  1  0  0  0  0
 19 48  1  0  0  0  0
 19 73  1  0  0  0  0
 20 49  1  0  0  0  0
 20 74  1  0  0  0  0
 21 30  1  0  0  0  0
 21 58  1  0  0  0  0
 21 59  1  0  0  0  0
 22 23  1  0  0  0  0
 22 24  1  0  0  0  0
 22 50  1  0  0  0  0
 23 25  1  0  0  0  0
 23 51  1  0  0  0  0
 24 26  1  0  0  0  0
 24 52  1  0  0  0  0
 25 27  1  1  0  0  0
 25 53  1  0  0  0  0
 27 54  1  0  0  0  0
 27 55  1  0  0  0  0
 28 31  1  0  0  0  0
 29 33  1  0  0  0  0
 31 35  2  0  0  0  0
 31 36  1  0  0  0  0
 32 34  1  0  0  0  0
 33 37  2  0  0  0  0
 33 38  1  0  0  0  0
 34 41  2  0  0  0  0
 34 42  1  0  0  0  0
 35 40  1  0  0  0  0
 35 60  1  0  0  0  0
 36 39  2  0  0  0  0
 36 61  1  0  0  0  0
 37 44  1  0  0  0  0
 37 62  1  0  0  0  0
 38 43  2  0  0  0  0
 38 63  1  0  0  0  0
 39 45  1  0  0  0  0
 40 45  2  0  0  0  0
 41 48  1  0  0  0  0
 41 64  1  0  0  0  0
 42 47  2  0  0  0  0
 42 65  1  0  0  0  0
 43 46  1  0  0  0  0
 44 46  2  0  0  0  0
 47 49  1  0  0  0  0
 48 49  2  0  0  0  0
M  END
> <PUBCHEM_COMPOUND_CID>
129844314

> <PUBCHEM_COMPOUND_CANONICALIZED>
1

> <PUBCHEM_CACTVS_COMPLEXITY>
1170

> <PUBCHEM_CACTVS_HBOND_ACCEPTOR>
20

> <PUBCHEM_CACTVS_HBOND_DONOR>
12

> <PUBCHEM_CACTVS_ROTATABLE_BOND>
12

> <PUBCHEM_CACTVS_SUBSKEYS>
AAADceB6PgAAAAAAAAAAAAAAAAAAAAAAAAA0YMEAAAAAAAABUAAAHgAQCAAADBSgmAIwDoBABgCIAiDSGAACAAAkIAAAiAEGiMkZNzKCNRqqcQElwBUPuYfK7DzOIAABCAAAQABAAAIQAACAAAAAAAAAAA==

> <PUBCHEM_IUPAC_OPENEYE_NAME>
[(2R,3R,4S,5R,6S)-6-carbamoyloxy-3,5-dihydroxy-4,6-bis[(3,4,5-trihydroxybenzoyl)oxy]tetrahydropyran-2-yl]methyl 3,4,5-trihydroxybenzoate

> <PUBCHEM_IUPAC_CAS_NAME>
3,4,5-trihydroxybenzoic acid [(2R,3R,4S,5R,6S)-6-carbamoyloxy-3,5-dihydroxy-4,6-bis[oxo-(3,4,5-trihydroxyphenyl)methoxy]-2-oxanyl]methyl ester

> <PUBCHEM_IUPAC_NAME_MARKUP>
[(2<I>R</I>,3<I>R</I>,4<I>S</I>,5<I>R</I>,6<I>S</I>)-6-carbamoyloxy-3,5-dihydroxy-4,6-bis[(3,4,5-trihydroxybenzoyl)oxy]oxan-2-yl]methyl 3,4,5-trihydroxybenzoate

> <PUBCHEM_IUPAC_NAME>
[(2R,3R,4S,5R,6S)-6-carbamoyloxy-3,5-dihydroxy-4,6-bis[(3,4,5-trihydroxybenzoyl)oxy]oxan-2-yl]methyl 3,4,5-trihydroxybenzoate

> <PUBCHEM_IUPAC_SYSTEMATIC_NAME>
[(2R,3R,4S,5R,6S)-6-aminocarbonyloxy-3,5-bis(oxidanyl)-4,6-bis[[3,4,5-tris(oxidanyl)phenyl]carbonyloxy]oxan-2-yl]methyl 3,4,5-tris(oxidanyl)benzoate

> <PUBCHEM_IUPAC_TRADITIONAL_NAME>
3,4,5-trihydroxybenzoic acid [(2R,3R,4S,5R,6S)-6-carbamoyloxy-4,6-digalloyloxy-3,5-dihydroxy-tetrahydropyran-2-yl]methyl ester

> <PUBCHEM_IUPAC_INCHI>
InChI=1S/C28H25NO20/c29-27(44)49-28(48-26(43)10-5-15(34)20(38)16(35)6-10)23(40)22(46-25(42)9-3-13(32)19(37)14(33)4-9)21(39)17(47-28)7-45-24(41)8-1-11(30)18(36)12(31)2-8/h1-6,17,21-23,30-40H,7H2,(H2,29,44)/t17-,21-,22+,23-,28+/m1/s1

> <PUBCHEM_IUPAC_INCHIKEY>
WALYEPYQDVXGRM-OCRZYJLYSA-N

> <PUBCHEM_XLOGP3_AA>
-0.4

> <PUBCHEM_EXACT_MASS>
695.096992

> <PUBCHEM_MOLECULAR_FORMULA>
C28H25NO20

> <PUBCHEM_MOLECULAR_WEIGHT>
695.5

> <PUBCHEM_OPENEYE_CAN_SMILES>
C1=C(C=C(C(=C1O)O)O)C(=O)OCC2C(C(C(C(O2)(OC(=O)C3=CC(=C(C(=C3)O)O)O)OC(=O)N)O)OC(=O)C4=CC(=C(C(=C4)O)O)O)O

> <PUBCHEM_OPENEYE_ISO_SMILES>
C1=C(C=C(C(=C1O)O)O)C(=O)OC[C@@H]2[C@H]([C@@H]([C@H]([C@](O2)(OC(=O)C3=CC(=C(C(=C3)O)O)O)OC(=O)N)O)OC(=O)C4=CC(=C(C(=C4)O)O)O)O

> <PUBCHEM_CACTVS_TPSA>
363

> <PUBCHEM_MONOISOTOPIC_WEIGHT>
695.096992

> <PUBCHEM_TOTAL_CHARGE>
0

> <PUBCHEM_HEAVY_ATOM_COUNT>
49

> <PUBCHEM_ATOM_DEF_STEREO_COUNT>
5

> <PUBCHEM_ATOM_UDEF_STEREO_COUNT>
0

> <PUBCHEM_BOND_DEF_STEREO_COUNT>
0

> <PUBCHEM_BOND_UDEF_STEREO_COUNT>
0

> <PUBCHEM_ISOTOPIC_ATOM_COUNT>
0

> <PUBCHEM_COMPONENT_COUNT>
1

> <PUBCHEM_CACTVS_TAUTO_COUNT>
-1

> <PUBCHEM_COORDINATE_TYPE>
1
5
255

> <PUBCHEM_BONDANNOTATIONS>
22  2  5
25  27  5
23  3  6
31  35  8
31  36  8
33  37  8
33  38  8
34  41  8
34  42  8
35  40  8
36  39  8
37  44  8
38  43  8
39  45  8
40  45  8
41  48  8
42  47  8
43  46  8
44  46  8
47  49  8
48  49  8
24  5  6
26  6  5

$$$$
129829178
  -OEChem-04052116542D

 72 75  0     1  0  0  0  0  0999 V2000
    9.2331   -1.1545    0.0000 S   0  0  3  0  0  0  0  0  0  0  0  0
    8.5991    0.2115    0.0000 O   0  0  0  0  0  0  0  0  0  0  0  0
    6.0010    1.7115    0.0000 O   0  0  0  0  0  0  0  0  0  0  0  0
    7.7331    2.7115    0.0000 O   0  0  0  0  0  0  0  0  0  0  0  0
    7.2331   -1.1545    0.0000 O   0  0  0  0  0  0  0  0  0  0  0  0
    6.0010   -0.2885    0.0000 O   0  0  0  0  0  0  0  0  0  0  0  0
    8.2331   -1.1545    0.0000 O   0  0  0  0  0  0  0  0  0  0  0  0
   10.3312    1.2115    0.0000 O   0  0  0  0  0  0  0  0  0  0  0  0
    6.8671    3.2115    0.0000 O   0  0  0  0  0  0  0  0  0  0  0  0
    8.7331   -2.0205    0.0000 O   0  0  0  0  0  0  0  0  0  0  0  0
    9.7331   -2.0205    0.0000 O   0  5  0  0  0  0  0  0  0  0  0  0
    9.7331   -0.2885    0.0000 O   0  0  0  0  0  0  0  0  0  0  0  0
   11.1972    2.7115    0.0000 O   0  0  0  0  0  0  0  0  0  0  0  0
    2.5369    2.7115    0.0000 O   0  0  0  0  0  0  0  0  0  0  0  0
    4.2690    5.7115    0.0000 O   0  0  0  0  0  0  0  0  0  0  0  0
    7.7331   -5.4846    0.0000 O   0  0  0  0  0  0  0  0  0  0  0  0
    4.7331   -3.7526    0.0000 O   0  0  0  0  0  0  0  0  0  0  0  0
    2.5369    4.7115    0.0000 O   0  0  0  0  0  0  0  0  0  0  0  0
    5.7331   -5.4846    0.0000 O   0  0  0  0  0  0  0  0  0  0  0  0
   14.6613    1.7115    0.0000 O   0  0  0  0  0  0  0  0  0  0  0  0
   12.9292   -1.2885    0.0000 O   0  0  0  0  0  0  0  0  0  0  0  0
   14.6613   -0.2885    0.0000 O   0  0  0  0  0  0  0  0  0  0  0  0
    6.8671    1.2115    0.0000 C   0  0  1  0  0  0  0  0  0  0  0  0
    7.7331    1.7115    0.0000 C   0  0  1  0  0  0  0  0  0  0  0  0
    6.8671    0.2115    0.0000 C   0  0  2  0  0  0  0  0  0  0  0  0
    8.5991    1.2115    0.0000 C   0  0  1  0  0  0  0  0  0  0  0  0
    7.7331   -0.2885    0.0000 C   0  0  1  0  0  0  0  0  0  0  0  0
    9.4651    1.7115    0.0000 C   0  0  0  0  0  0  0  0  0  0  0  0
    6.0010    2.7115    0.0000 C   0  0  0  0  0  0  0  0  0  0  0  0
    7.7331   -2.0205    0.0000 C   0  0  0  0  0  0  0  0  0  0  0  0
    5.1350    3.2115    0.0000 C   0  0  0  0  0  0  0  0  0  0  0  0
   11.1972    1.7115    0.0000 C   0  0  0  0  0  0  0  0  0  0  0  0
    7.2331   -2.8865    0.0000 C   0  0  0  0  0  0  0  0  0  0  0  0
   12.0632    1.2115    0.0000 C   0  0  0  0  0  0  0  0  0  0  0  0
    5.1350    4.2115    0.0000 C   0  0  0  0  0  0  0  0  0  0  0  0
    4.2690    2.7115    0.0000 C   0  0  0  0  0  0  0  0  0  0  0  0
    6.2331   -2.8865    0.0000 C   0  0  0  0  0  0  0  0  0  0  0  0
    7.7331   -3.7526    0.0000 C   0  0  0  0  0  0  0  0  0  0  0  0
    3.4030    3.2115    0.0000 C   0  0  0  0  0  0  0  0  0  0  0  0
    4.2690    4.7115    0.0000 C   0  0  0  0  0  0  0  0  0  0  0  0
   12.0632    0.2115    0.0000 C   0  0  0  0  0  0  0  0  0  0  0  0
   12.9292    1.7115    0.0000 C   0  0  0  0  0  0  0  0  0  0  0  0
    7.2331   -4.6186    0.0000 C   0  0  0  0  0  0  0  0  0  0  0  0
    5.7331   -3.7526    0.0000 C   0  0  0  0  0  0  0  0  0  0  0  0
    3.4030    4.2115    0.0000 C   0  0  0  0  0  0  0  0  0  0  0  0
    6.2331   -4.6186    0.0000 C   0  0  0  0  0  0  0  0  0  0  0  0
   13.7953    1.2115    0.0000 C   0  0  0  0  0  0  0  0  0  0  0  0
   12.9292   -0.2885    0.0000 C   0  0  0  0  0  0  0  0  0  0  0  0
   13.7953    0.2115    0.0000 C   0  0  0  0  0  0  0  0  0  0  0  0
    6.8671    1.8315    0.0000 H   0  0  0  0  0  0  0  0  0  0  0  0
    8.2700    2.0215    0.0000 H   0  0  0  0  0  0  0  0  0  0  0  0
    6.3301    0.5215    0.0000 H   0  0  0  0  0  0  0  0  0  0  0  0
    9.1360    0.9015    0.0000 H   0  0  0  0  0  0  0  0  0  0  0  0
    9.8637    2.1865    0.0000 H   0  0  0  0  0  0  0  0  0  0  0  0
    9.0666    2.1865    0.0000 H   0  0  0  0  0  0  0  0  0  0  0  0
    8.2700    3.0215    0.0000 H   0  0  0  0  0  0  0  0  0  0  0  0
    5.4641    0.0215    0.0000 H   0  0  0  0  0  0  0  0  0  0  0  0
    5.6720    4.5215    0.0000 H   0  0  0  0  0  0  0  0  0  0  0  0
    4.2690    2.0915    0.0000 H   0  0  0  0  0  0  0  0  0  0  0  0
    5.9231   -2.3496    0.0000 H   0  0  0  0  0  0  0  0  0  0  0  0
    8.3531   -3.7526    0.0000 H   0  0  0  0  0  0  0  0  0  0  0  0
   11.5263   -0.0985    0.0000 H   0  0  0  0  0  0  0  0  0  0  0  0
   12.9292    2.3315    0.0000 H   0  0  0  0  0  0  0  0  0  0  0  0
    2.0000    3.0215    0.0000 H   0  0  0  0  0  0  0  0  0  0  0  0
    4.8059    6.0215    0.0000 H   0  0  0  0  0  0  0  0  0  0  0  0
    8.3531   -5.4846    0.0000 H   0  0  0  0  0  0  0  0  0  0  0  0
    4.4231   -4.2895    0.0000 H   0  0  0  0  0  0  0  0  0  0  0  0
    2.5369    5.3315    0.0000 H   0  0  0  0  0  0  0  0  0  0  0  0
    6.0431   -6.0215    0.0000 H   0  0  0  0  0  0  0  0  0  0  0  0
   14.6613    2.3315    0.0000 H   0  0  0  0  0  0  0  0  0  0  0  0
   13.4662   -1.5985    0.0000 H   0  0  0  0  0  0  0  0  0  0  0  0
   15.1982    0.0215    0.0000 H   0  0  0  0  0  0  0  0  0  0  0  0
  1  7  1  0  0  0  0
  1 11  1  0  0  0  0
  1 12  2  0  0  0  0
  2 26  1  0  0  0  0
  2 27  1  0  0  0  0
 23  3  1  1  0  0  0
  3 29  1  0  0  0  0
 24  4  1  6  0  0  0
  4 56  1  0  0  0  0
  5 27  1  0  0  0  0
  5 30  1  0  0  0  0
 25  6  1  6  0  0  0
  6 57  1  0  0  0  0
 27  7  1  1  0  0  0
  8 28  1  0  0  0  0
  8 32  1  0  0  0  0
  9 29  2  0  0  0  0
 10 30  2  0  0  0  0
 13 32  2  0  0  0  0
 14 39  1  0  0  0  0
 14 64  1  0  0  0  0
 15 40  1  0  0  0  0
 15 65  1  0  0  0  0
 16 43  1  0  0  0  0
 16 66  1  0  0  0  0
 17 44  1  0  0  0  0
 17 67  1  0  0  0  0
 18 45  1  0  0  0  0
 18 68  1  0  0  0  0
 19 46  1  0  0  0  0
 19 69  1  0  0  0  0
 20 47  1  0  0  0  0
 20 70  1  0  0  0  0
 21 48  1  0  0  0  0
 21 71  1  0  0  0  0
 22 49  1  0  0  0  0
 22 72  1  0  0  0  0
 23 24  1  0  0  0  0
 23 25  1  0  0  0  0
 23 50  1  0  0  0  0
 24 26  1  0  0  0  0
 24 51  1  0  0  0  0
 25 27  1  0  0  0  0
 25 52  1  0  0  0  0
 26 28  1  1  0  0  0
 26 53  1  0  0  0  0
 28 54  1  0  0  0  0
 28 55  1  0  0  0  0
 29 31  1  0  0  0  0
 30 33  1  0  0  0  0
 31 35  2  0  0  0  0
 31 36  1  0  0  0  0
 32 34  1  0  0  0  0
 33 37  2  0  0  0  0
 33 38  1  0  0  0  0
 34 41  2  0  0  0  0
 34 42  1  0  0  0  0
 35 40  1  0  0  0  0
 35 58  1  0  0  0  0
 36 39  2  0  0  0  0
 36 59  1  0  0  0  0
 37 44  1  0  0  0  0
 37 60  1  0  0  0  0
 38 43  2  0  0  0  0
 38 61  1  0  0  0  0
 39 45  1  0  0  0  0
 40 45  2  0  0  0  0
 41 48  1  0  0  0  0
 41 62  1  0  0  0  0
 42 47  2  0  0  0  0
 42 63  1  0  0  0  0
 43 46  1  0  0  0  0
 44 46  2  0  0  0  0
 47 49  1  0  0  0  0
 48 49  2  0  0  0  0
M  CHG  1  11  -1
M  END
> <PUBCHEM_COMPOUND_CID>
129829178

> <PUBCHEM_COMPOUND_CANONICALIZED>
1

> <PUBCHEM_CACTVS_COMPLEXITY>
1170

> <PUBCHEM_CACTVS_HBOND_ACCEPTOR>
22

> <PUBCHEM_CACTVS_HBOND_DONOR>
11

> <PUBCHEM_CACTVS_ROTATABLE_BOND>
11

> <PUBCHEM_CACTVS_SUBSKEYS>
AAADceB4PgBAAAAAAAAAAAAAAAAAAAAAAAA0YMEAAAAAAAABUAAAGgAACAAADBSgmAIwDoAABgCIAiDSCCACAAAkIAAAiAEGiMgZNzKCNRqicQElwBUPuYfK7DzOIAABCAAAQABAAAIQAACAAAAAAAAAAA==

> <PUBCHEM_IUPAC_OPENEYE_NAME>
[(2S,3R,4S,5R,6R)-3,5-dihydroxy-2,4-bis[(3,4,5-trihydroxybenzoyl)oxy]-6-[(3,4,5-trihydroxybenzoyl)oxymethyl]tetrahydropyran-2-yl] sulfite

> <PUBCHEM_IUPAC_CAS_NAME>
[(2S,3R,4S,5R,6R)-3,5-dihydroxy-2,4-bis[oxo-(3,4,5-trihydroxyphenyl)methoxy]-6-[[oxo-(3,4,5-trihydroxyphenyl)methoxy]methyl]-2-oxanyl] sulfite

> <PUBCHEM_IUPAC_NAME_MARKUP>
[(2<I>S</I>,3<I>R</I>,4<I>S</I>,5<I>R</I>,6<I>R</I>)-3,5-dihydroxy-2,4-bis[(3,4,5-trihydroxybenzoyl)oxy]-6-[(3,4,5-trihydroxybenzoyl)oxymethyl]oxan-2-yl] sulfite

> <PUBCHEM_IUPAC_NAME>
[(2S,3R,4S,5R,6R)-3,5-dihydroxy-2,4-bis[(3,4,5-trihydroxybenzoyl)oxy]-6-[(3,4,5-trihydroxybenzoyl)oxymethyl]oxan-2-yl] sulfite

> <PUBCHEM_IUPAC_SYSTEMATIC_NAME>
[(2S,3R,4S,5R,6R)-3,5-bis(oxidanyl)-2,4-bis[[3,4,5-tris(oxidanyl)phenyl]carbonyloxy]-6-[[3,4,5-tris(oxidanyl)phenyl]carbonyloxymethyl]oxan-2-yl] sulfite

> <PUBCHEM_IUPAC_TRADITIONAL_NAME>
[(2S,3R,4S,5R,6R)-2,4-digalloyloxy-6-(galloyloxymethyl)-3,5-dihydroxy-tetrahydropyran-2-yl] sulfite

> <PUBCHEM_IUPAC_INCHI>
InChI=1S/C27H24O21S/c28-11-1-8(2-12(29)18(11)34)24(39)44-7-17-21(37)22(45-25(40)9-3-13(30)19(35)14(31)4-9)23(38)27(46-17,48-49(42)43)47-26(41)10-5-15(32)20(36)16(33)6-10/h1-6,17,21-23,28-38H,7H2,(H,42,43)/p-1/t17-,21-,22+,23-,27+/m1/s1

> <PUBCHEM_IUPAC_INCHIKEY>
CGEBRAPNNVXYOE-VFTFQOQOSA-M

> <PUBCHEM_XLOGP3_AA>
-0.6

> <PUBCHEM_EXACT_MASS>
715.045254

> <PUBCHEM_MOLECULAR_FORMULA>
C27H23O21S-

> <PUBCHEM_MOLECULAR_WEIGHT>
715.5

> <PUBCHEM_OPENEYE_CAN_SMILES>
C1=C(C=C(C(=C1O)O)O)C(=O)OCC2C(C(C(C(O2)(OC(=O)C3=CC(=C(C(=C3)O)O)O)OS(=O)[O-])O)OC(=O)C4=CC(=C(C(=C4)O)O)O)O

> <PUBCHEM_OPENEYE_ISO_SMILES>
C1=C(C=C(C(=C1O)O)O)C(=O)OC[C@@H]2[C@H]([C@@H]([C@H]([C@](O2)(OC(=O)C3=CC(=C(C(=C3)O)O)O)OS(=O)[O-])O)OC(=O)C4=CC(=C(C(=C4)O)O)O)O

> <PUBCHEM_CACTVS_TPSA>
379

> <PUBCHEM_MONOISOTOPIC_WEIGHT>
715.045254

> <PUBCHEM_TOTAL_CHARGE>
-1

> <PUBCHEM_HEAVY_ATOM_COUNT>
49

> <PUBCHEM_ATOM_DEF_STEREO_COUNT>
5

> <PUBCHEM_ATOM_UDEF_STEREO_COUNT>
0

> <PUBCHEM_BOND_DEF_STEREO_COUNT>
0

> <PUBCHEM_BOND_UDEF_STEREO_COUNT>
0

> <PUBCHEM_ISOTOPIC_ATOM_COUNT>
0

> <PUBCHEM_COMPONENT_COUNT>
1

> <PUBCHEM_CACTVS_TAUTO_COUNT>
-1

> <PUBCHEM_COORDINATE_TYPE>
1
5
255

> <PUBCHEM_BONDANNOTATIONS>
26  28  5
23  3  5
31  35  8
31  36  8
33  37  8
33  38  8
34  41  8
34  42  8
35  40  8
36  39  8
37  44  8
38  43  8
39  45  8
24  4  6
40  45  8
41  48  8
42  47  8
43  46  8
44  46  8
47  49  8
48  49  8
25  6  6
27  7  5

$$$$
129774158
  -OEChem-04052116542D

 76 79  0     1  0  0  0  0  0999 V2000
    7.2331   -2.5875    0.0000 S   0  0  0  0  0  0  0  0  0  0  0  0
    8.5991   -0.2215    0.0000 O   0  0  0  0  0  0  0  0  0  0  0  0
    8.2331   -1.5875    0.0000 O   0  0  0  0  0  0  0  0  0  0  0  0
    6.0010    1.2785    0.0000 O   0  0  0  0  0  0  0  0  0  0  0  0
    6.0010   -0.7215    0.0000 O   0  0  0  0  0  0  0  0  0  0  0  0
    7.7331    2.2785    0.0000 O   0  0  0  0  0  0  0  0  0  0  0  0
   10.3312    0.7785    0.0000 O   0  0  0  0  0  0  0  0  0  0  0  0
    6.2331   -2.5875    0.0000 O   0  0  0  0  0  0  0  0  0  0  0  0
    7.2331   -3.5875    0.0000 O   0  0  0  0  0  0  0  0  0  0  0  0
    8.2331   -2.5875    0.0000 O   0  0  0  0  0  0  0  0  0  0  0  0
    9.7331   -0.7215    0.0000 O   0  0  0  0  0  0  0  0  0  0  0  0
    6.8671    2.7785    0.0000 O   0  0  0  0  0  0  0  0  0  0  0  0
   11.1972    2.2785    0.0000 O   0  0  0  0  0  0  0  0  0  0  0  0
   12.2331   -3.3195    0.0000 O   0  0  0  0  0  0  0  0  0  0  0  0
    9.2331   -5.0516    0.0000 O   0  0  0  0  0  0  0  0  0  0  0  0
    2.5369    2.2785    0.0000 O   0  0  0  0  0  0  0  0  0  0  0  0
    4.2690    5.2785    0.0000 O   0  0  0  0  0  0  0  0  0  0  0  0
   11.2331   -5.0516    0.0000 O   0  0  0  0  0  0  0  0  0  0  0  0
    2.5369    4.2785    0.0000 O   0  0  0  0  0  0  0  0  0  0  0  0
   14.6613    1.2785    0.0000 O   0  0  0  0  0  0  0  0  0  0  0  0
   12.9292   -1.7215    0.0000 O   0  0  0  0  0  0  0  0  0  0  0  0
   14.6613   -0.7215    0.0000 O   0  0  0  0  0  0  0  0  0  0  0  0
    7.7331   -0.7215    0.0000 C   0  0  2  0  0  0  0  0  0  0  0  0
    6.8671   -0.2215    0.0000 C   0  0  1  0  0  0  0  0  0  0  0  0
    6.8671    0.7785    0.0000 C   0  0  2  0  0  0  0  0  0  0  0  0
    7.7331    1.2785    0.0000 C   0  0  1  0  0  0  0  0  0  0  0  0
    8.5991    0.7785    0.0000 C   0  0  1  0  0  0  0  0  0  0  0  0
    7.2331   -1.5875    0.0000 C   0  0  0  0  0  0  0  0  0  0  0  0
    9.4651    1.2785    0.0000 C   0  0  0  0  0  0  0  0  0  0  0  0
    9.2331   -1.5875    0.0000 C   0  0  0  0  0  0  0  0  0  0  0  0
    6.0010    2.2785    0.0000 C   0  0  0  0  0  0  0  0  0  0  0  0
    9.7331   -2.4535    0.0000 C   0  0  0  0  0  0  0  0  0  0  0  0
    5.1350    2.7785    0.0000 C   0  0  0  0  0  0  0  0  0  0  0  0
   11.1972    1.2785    0.0000 C   0  0  0  0  0  0  0  0  0  0  0  0
    9.2331   -3.3195    0.0000 C   0  0  0  0  0  0  0  0  0  0  0  0
   10.7331   -2.4535    0.0000 C   0  0  0  0  0  0  0  0  0  0  0  0
   12.0632    0.7785    0.0000 C   0  0  0  0  0  0  0  0  0  0  0  0
    5.1350    3.7785    0.0000 C   0  0  0  0  0  0  0  0  0  0  0  0
    4.2690    2.2785    0.0000 C   0  0  0  0  0  0  0  0  0  0  0  0
   11.2331   -3.3195    0.0000 C   0  0  0  0  0  0  0  0  0  0  0  0
    9.7331   -4.1856    0.0000 C   0  0  0  0  0  0  0  0  0  0  0  0
    3.4030    2.7785    0.0000 C   0  0  0  0  0  0  0  0  0  0  0  0
    4.2690    4.2785    0.0000 C   0  0  0  0  0  0  0  0  0  0  0  0
   10.7331   -4.1856    0.0000 C   0  0  0  0  0  0  0  0  0  0  0  0
   12.0632   -0.2215    0.0000 C   0  0  0  0  0  0  0  0  0  0  0  0
   12.9292    1.2785    0.0000 C   0  0  0  0  0  0  0  0  0  0  0  0
    3.4030    3.7785    0.0000 C   0  0  0  0  0  0  0  0  0  0  0  0
   13.7953    0.7785    0.0000 C   0  0  0  0  0  0  0  0  0  0  0  0
   12.9292   -0.7215    0.0000 C   0  0  0  0  0  0  0  0  0  0  0  0
   13.7953   -0.2215    0.0000 C   0  0  0  0  0  0  0  0  0  0  0  0
    6.3301    0.0885    0.0000 H   0  0  0  0  0  0  0  0  0  0  0  0
    6.8671    1.3985    0.0000 H   0  0  0  0  0  0  0  0  0  0  0  0
    8.2700    1.5885    0.0000 H   0  0  0  0  0  0  0  0  0  0  0  0
    9.1360    0.4685    0.0000 H   0  0  0  0  0  0  0  0  0  0  0  0
    6.8346   -1.1126    0.0000 H   0  0  0  0  0  0  0  0  0  0  0  0
    7.8320   -1.7480    0.0000 H   0  0  0  0  0  0  0  0  0  0  0  0
    9.8637    1.7535    0.0000 H   0  0  0  0  0  0  0  0  0  0  0  0
    9.0666    1.7535    0.0000 H   0  0  0  0  0  0  0  0  0  0  0  0
    5.4641   -0.4115    0.0000 H   0  0  0  0  0  0  0  0  0  0  0  0
    8.2700    2.5885    0.0000 H   0  0  0  0  0  0  0  0  0  0  0  0
    5.9232   -3.1245    0.0000 H   0  0  0  0  0  0  0  0  0  0  0  0
    8.6131   -3.3195    0.0000 H   0  0  0  0  0  0  0  0  0  0  0  0
   11.0431   -1.9166    0.0000 H   0  0  0  0  0  0  0  0  0  0  0  0
    5.6720    4.0885    0.0000 H   0  0  0  0  0  0  0  0  0  0  0  0
    4.2690    1.6585    0.0000 H   0  0  0  0  0  0  0  0  0  0  0  0
   11.5263   -0.5315    0.0000 H   0  0  0  0  0  0  0  0  0  0  0  0
   12.9292    1.8985    0.0000 H   0  0  0  0  0  0  0  0  0  0  0  0
   12.5431   -3.8565    0.0000 H   0  0  0  0  0  0  0  0  0  0  0  0
    9.5431   -5.5885    0.0000 H   0  0  0  0  0  0  0  0  0  0  0  0
    2.0000    2.5885    0.0000 H   0  0  0  0  0  0  0  0  0  0  0  0
    4.8059    5.5885    0.0000 H   0  0  0  0  0  0  0  0  0  0  0  0
   10.9231   -5.5885    0.0000 H   0  0  0  0  0  0  0  0  0  0  0  0
    2.5369    4.8985    0.0000 H   0  0  0  0  0  0  0  0  0  0  0  0
   14.6613    1.8985    0.0000 H   0  0  0  0  0  0  0  0  0  0  0  0
   13.4662   -2.0315    0.0000 H   0  0  0  0  0  0  0  0  0  0  0  0
   15.1982   -0.4115    0.0000 H   0  0  0  0  0  0  0  0  0  0  0  0
  1  8  1  0  0  0  0
  1  9  2  0  0  0  0
  1 10  2  0  0  0  0
  1 28  1  0  0  0  0
  2 23  1  0  0  0  0
  2 27  1  0  0  0  0
 23  3  1  6  0  0  0
  3 30  1  0  0  0  0
 25  4  1  1  0  0  0
  4 31  1  0  0  0  0
 24  5  1  6  0  0  0
  5 59  1  0  0  0  0
 26  6  1  6  0  0  0
  6 60  1  0  0  0  0
  7 29  1  0  0  0  0
  7 34  1  0  0  0  0
  8 61  1  0  0  0  0
 11 30  2  0  0  0  0
 12 31  2  0  0  0  0
 13 34  2  0  0  0  0
 14 40  1  0  0  0  0
 14 68  1  0  0  0  0
 15 41  1  0  0  0  0
 15 69  1  0  0  0  0
 16 42  1  0  0  0  0
 16 70  1  0  0  0  0
 17 43  1  0  0  0  0
 17 71  1  0  0  0  0
 18 44  1  0  0  0  0
 18 72  1  0  0  0  0
 19 47  1  0  0  0  0
 19 73  1  0  0  0  0
 20 48  1  0  0  0  0
 20 74  1  0  0  0  0
 21 49  1  0  0  0  0
 21 75  1  0  0  0  0
 22 50  1  0  0  0  0
 22 76  1  0  0  0  0
 23 24  1  0  0  0  0
 23 28  1  0  0  0  0
 24 25  1  0  0  0  0
 24 51  1  0  0  0  0
 25 26  1  0  0  0  0
 25 52  1  0  0  0  0
 26 27  1  0  0  0  0
 26 53  1  0  0  0  0
 27 29  1  1  0  0  0
 27 54  1  0  0  0  0
 28 55  1  0  0  0  0
 28 56  1  0  0  0  0
 29 57  1  0  0  0  0
 29 58  1  0  0  0  0
 30 32  1  0  0  0  0
 31 33  1  0  0  0  0
 32 35  2  0  0  0  0
 32 36  1  0  0  0  0
 33 38  2  0  0  0  0
 33 39  1  0  0  0  0
 34 37  1  0  0  0  0
 35 41  1  0  0  0  0
 35 62  1  0  0  0  0
 36 40  2  0  0  0  0
 36 63  1  0  0  0  0
 37 45  2  0  0  0  0
 37 46  1  0  0  0  0
 38 43  1  0  0  0  0
 38 64  1  0  0  0  0
 39 42  2  0  0  0  0
 39 65  1  0  0  0  0
 40 44  1  0  0  0  0
 41 44  2  0  0  0  0
 42 47  1  0  0  0  0
 43 47  2  0  0  0  0
 45 49  1  0  0  0  0
 45 66  1  0  0  0  0
 46 48  2  0  0  0  0
 46 67  1  0  0  0  0
 48 50  1  0  0  0  0
 49 50  2  0  0  0  0
M  END
> <PUBCHEM_COMPOUND_CID>
129774158

> <PUBCHEM_COMPOUND_CANONICALIZED>
1

> <PUBCHEM_CACTVS_COMPLEXITY>
1290

> <PUBCHEM_CACTVS_HBOND_ACCEPTOR>
21

> <PUBCHEM_CACTVS_HBOND_DONOR>
12

> <PUBCHEM_CACTVS_ROTATABLE_BOND>
12

> <PUBCHEM_CACTVS_SUBSKEYS>
AAADceB4PgBAAAAAAAAAAAAAAAAAAAAAAAA0YMEAAAAAAAABUAAAGgQACAAADBSk2AKwDoAABoKIAiDSCHBCAAAkIAAAiAEGiMgZNzKCNRqicQElwBUPuYfK7DzOIAABCAAAQABAAAIQAACAAAAAAAAAAA==

> <PUBCHEM_IUPAC_OPENEYE_NAME>
[(2S,3R,4S,5R,6R)-3,5-dihydroxy-2,4-bis[(3,4,5-trihydroxybenzoyl)oxy]-6-[(3,4,5-trihydroxybenzoyl)oxymethyl]tetrahydropyran-2-yl]methanesulfonic acid

> <PUBCHEM_IUPAC_CAS_NAME>
[(2S,3R,4S,5R,6R)-3,5-dihydroxy-2,4-bis[oxo-(3,4,5-trihydroxyphenyl)methoxy]-6-[[oxo-(3,4,5-trihydroxyphenyl)methoxy]methyl]-2-oxanyl]methanesulfonic acid

> <PUBCHEM_IUPAC_NAME_MARKUP>
[(2<I>S</I>,3<I>R</I>,4<I>S</I>,5<I>R</I>,6<I>R</I>)-3,5-dihydroxy-2,4-bis[(3,4,5-trihydroxybenzoyl)oxy]-6-[(3,4,5-trihydroxybenzoyl)oxymethyl]oxan-2-yl]methanesulfonic acid

> <PUBCHEM_IUPAC_NAME>
[(2S,3R,4S,5R,6R)-3,5-dihydroxy-2,4-bis[(3,4,5-trihydroxybenzoyl)oxy]-6-[(3,4,5-trihydroxybenzoyl)oxymethyl]oxan-2-yl]methanesulfonic acid

> <PUBCHEM_IUPAC_SYSTEMATIC_NAME>
[(2S,3R,4S,5R,6R)-3,5-bis(oxidanyl)-2,4-bis[[3,4,5-tris(oxidanyl)phenyl]carbonyloxy]-6-[[3,4,5-tris(oxidanyl)phenyl]carbonyloxymethyl]oxan-2-yl]methanesulfonic acid

> <PUBCHEM_IUPAC_TRADITIONAL_NAME>
[(2S,3R,4S,5R,6R)-2,4-digalloyloxy-6-(galloyloxymethyl)-3,5-dihydroxy-tetrahydropyran-2-yl]methanesulfonic acid

> <PUBCHEM_IUPAC_INCHI>
InChI=1S/C28H26O21S/c29-12-1-9(2-13(30)19(12)35)25(40)46-7-18-22(38)23(47-26(41)10-3-14(31)20(36)15(32)4-10)24(39)28(48-18,8-50(43,44)45)49-27(42)11-5-16(33)21(37)17(34)6-11/h1-6,18,22-24,29-39H,7-8H2,(H,43,44,45)/t18-,22-,23+,24-,28-/m1/s1

> <PUBCHEM_IUPAC_INCHIKEY>
UCCYHYQYWPRFPV-VOMOLILNSA-N

> <PUBCHEM_XLOGP3_AA>
-0.9

> <PUBCHEM_EXACT_MASS>
730.068729

> <PUBCHEM_MOLECULAR_FORMULA>
C28H26O21S

> <PUBCHEM_MOLECULAR_WEIGHT>
730.6

> <PUBCHEM_OPENEYE_CAN_SMILES>
C1=C(C=C(C(=C1O)O)O)C(=O)OCC2C(C(C(C(O2)(CS(=O)(=O)O)OC(=O)C3=CC(=C(C(=C3)O)O)O)O)OC(=O)C4=CC(=C(C(=C4)O)O)O)O

> <PUBCHEM_OPENEYE_ISO_SMILES>
C1=C(C=C(C(=C1O)O)O)C(=O)OC[C@@H]2[C@H]([C@@H]([C@H]([C@@](O2)(CS(=O)(=O)O)OC(=O)C3=CC(=C(C(=C3)O)O)O)O)OC(=O)C4=CC(=C(C(=C4)O)O)O)O

> <PUBCHEM_CACTVS_TPSA>
373

> <PUBCHEM_MONOISOTOPIC_WEIGHT>
730.068729

> <PUBCHEM_TOTAL_CHARGE>
0

> <PUBCHEM_HEAVY_ATOM_COUNT>
50

> <PUBCHEM_ATOM_DEF_STEREO_COUNT>
5

> <PUBCHEM_ATOM_UDEF_STEREO_COUNT>
0

> <PUBCHEM_BOND_DEF_STEREO_COUNT>
0

> <PUBCHEM_BOND_UDEF_STEREO_COUNT>
0

> <PUBCHEM_ISOTOPIC_ATOM_COUNT>
0

> <PUBCHEM_COMPONENT_COUNT>
1

> <PUBCHEM_CACTVS_TAUTO_COUNT>
-1

> <PUBCHEM_COORDINATE_TYPE>
1
5
255

> <PUBCHEM_BONDANNOTATIONS>
27  29  5
23  3  6
32  35  8
32  36  8
33  38  8
33  39  8
35  41  8
36  40  8
37  45  8
37  46  8
38  43  8
39  42  8
25  4  5
40  44  8
41  44  8
42  47  8
43  47  8
45  49  8
46  48  8
48  50  8
49  50  8
24  5  6
26  6  6

$$$$
129729525
  -OEChem-04052116542D

 70 72  0     1  0  0  0  0  0999 V2000
   12.6002    6.5600    0.0000 Ag  0  0  0  0  0  0  0  0  0  0  0  0
    4.8671    7.8100    0.0000 O   0  0  0  0  0  0  0  0  0  0  0  0
    4.8671    4.8100    0.0000 O   0  0  0  0  0  0  0  0  0  0  0  0
    3.1350    5.8100    0.0000 O   0  0  0  0  0  0  0  0  0  0  0  0
    6.5991    5.8100    0.0000 O   0  0  0  0  0  0  0  0  0  0  0  0
    6.5991    7.8100    0.0000 O   0  0  0  0  0  0  0  0  0  0  0  0
    3.1350    8.8100    0.0000 O   0  0  0  0  0  0  0  0  0  0  0  0
    3.1350    4.8100    0.0000 O   0  0  0  0  0  0  0  0  0  0  0  0
    5.7331    9.3100    0.0000 O   0  0  0  0  0  0  0  0  0  0  0  0
    1.4030    8.8100    0.0000 O   0  0  0  0  0  0  0  0  0  0  0  0
    5.7331    1.3100    0.0000 O   0  0  0  0  0  0  0  0  0  0  0  0
    2.2690    1.3100    0.0000 O   0  0  0  0  0  0  0  0  0  0  0  0
    4.0010    0.3100    0.0000 O   0  0  0  0  0  0  0  0  0  0  0  0
    8.3312   11.8100    0.0000 O   0  0  0  0  0  0  0  0  0  0  0  0
   10.0632    8.8100    0.0000 O   0  0  0  0  0  0  0  0  0  0  0  0
   10.0632   10.8100    0.0000 O   0  0  0  0  0  0  0  0  0  0  0  0
    0.5369   12.3100    0.0000 O   0  0  0  0  0  0  0  0  0  0  0  0
    4.0010   12.3100    0.0000 O   0  0  0  0  0  0  0  0  0  0  0  0
    2.2690   13.3100    0.0000 O   0  0  0  0  0  0  0  0  0  0  0  0
    4.8671    5.8100    0.0000 C   0  0  1  0  0  0  0  0  0  0  0  0
    4.0010    6.3100    0.0000 C   0  0  1  0  0  0  0  0  0  0  0  0
    4.0010    7.3100    0.0000 C   0  0  1  0  0  0  0  0  0  0  0  0
    5.7331    6.3100    0.0000 C   0  0  2  0  0  0  0  0  0  0  0  0
    5.7331    7.3100    0.0000 C   0  0  1  0  0  0  0  0  0  0  0  0
    3.1350    7.8100    0.0000 C   0  0  0  0  0  0  0  0  0  0  0  0
    4.0010    4.3100    0.0000 C   0  0  0  0  0  0  0  0  0  0  0  0
    6.5991    8.8100    0.0000 C   0  0  0  0  0  0  0  0  0  0  0  0
    4.0010    3.3100    0.0000 C   0  0  0  0  0  0  0  0  0  0  0  0
    2.2690    9.3100    0.0000 C   0  0  0  0  0  0  0  0  0  0  0  0
    7.4651    9.3100    0.0000 C   0  0  0  0  0  0  0  0  0  0  0  0
    2.2690   10.3100    0.0000 C   0  0  0  0  0  0  0  0  0  0  0  0
    3.1350    2.8100    0.0000 C   0  0  0  0  0  0  0  0  0  0  0  0
    4.8671    2.8100    0.0000 C   0  0  0  0  0  0  0  0  0  0  0  0
    8.3312    8.8100    0.0000 C   0  0  0  0  0  0  0  0  0  0  0  0
    7.4651   10.3100    0.0000 C   0  0  0  0  0  0  0  0  0  0  0  0
    4.8671    1.8100    0.0000 C   0  0  0  0  0  0  0  0  0  0  0  0
    3.1350    1.8100    0.0000 C   0  0  0  0  0  0  0  0  0  0  0  0
    3.1350   10.8100    0.0000 C   0  0  0  0  0  0  0  0  0  0  0  0
    1.4030   10.8100    0.0000 C   0  0  0  0  0  0  0  0  0  0  0  0
    4.0010    1.3100    0.0000 C   0  0  0  0  0  0  0  0  0  0  0  0
    8.3312   10.8100    0.0000 C   0  0  0  0  0  0  0  0  0  0  0  0
    9.1972    9.3100    0.0000 C   0  0  0  0  0  0  0  0  0  0  0  0
    9.1972   10.3100    0.0000 C   0  0  0  0  0  0  0  0  0  0  0  0
    1.4030   11.8100    0.0000 C   0  0  0  0  0  0  0  0  0  0  0  0
    3.1350   11.8100    0.0000 C   0  0  0  0  0  0  0  0  0  0  0  0
    2.2690   12.3100    0.0000 C   0  0  0  0  0  0  0  0  0  0  0  0
    5.4040    5.5000    0.0000 H   0  0  0  0  0  0  0  0  0  0  0  0
    4.0010    5.6900    0.0000 H   0  0  0  0  0  0  0  0  0  0  0  0
    4.0010    7.9300    0.0000 H   0  0  0  0  0  0  0  0  0  0  0  0
    5.7331    5.6900    0.0000 H   0  0  0  0  0  0  0  0  0  0  0  0
    6.2700    7.0000    0.0000 H   0  0  0  0  0  0  0  0  0  0  0  0
    2.5244    7.9177    0.0000 H   0  0  0  0  0  0  0  0  0  0  0  0
    2.9230    7.2274    0.0000 H   0  0  0  0  0  0  0  0  0  0  0  0
    2.5981    6.1200    0.0000 H   0  0  0  0  0  0  0  0  0  0  0  0
    7.1360    6.1200    0.0000 H   0  0  0  0  0  0  0  0  0  0  0  0
    2.5981    3.1200    0.0000 H   0  0  0  0  0  0  0  0  0  0  0  0
    5.4040    3.1200    0.0000 H   0  0  0  0  0  0  0  0  0  0  0  0
    8.3312    8.1900    0.0000 H   0  0  0  0  0  0  0  0  0  0  0  0
    6.9282   10.6200    0.0000 H   0  0  0  0  0  0  0  0  0  0  0  0
    3.6720   10.5000    0.0000 H   0  0  0  0  0  0  0  0  0  0  0  0
    0.8660   10.5000    0.0000 H   0  0  0  0  0  0  0  0  0  0  0  0
    6.2700    1.6200    0.0000 H   0  0  0  0  0  0  0  0  0  0  0  0
    1.7320    1.6200    0.0000 H   0  0  0  0  0  0  0  0  0  0  0  0
    3.4641    0.0000    0.0000 H   0  0  0  0  0  0  0  0  0  0  0  0
    7.7942   12.1200    0.0000 H   0  0  0  0  0  0  0  0  0  0  0  0
   10.0632    8.1900    0.0000 H   0  0  0  0  0  0  0  0  0  0  0  0
   10.6002   10.5000    0.0000 H   0  0  0  0  0  0  0  0  0  0  0  0
    0.0000   12.0000    0.0000 H   0  0  0  0  0  0  0  0  0  0  0  0
    4.0010   12.9300    0.0000 H   0  0  0  0  0  0  0  0  0  0  0  0
    1.7320   13.6200    0.0000 H   0  0  0  0  0  0  0  0  0  0  0  0
  2 22  1  0  0  0  0
  2 24  1  0  0  0  0
 20  3  1  1  0  0  0
  3 26  1  0  0  0  0
 21  4  1  6  0  0  0
  4 54  1  0  0  0  0
 23  5  1  6  0  0  0
  5 55  1  0  0  0  0
 24  6  1  1  0  0  0
  6 27  1  0  0  0  0
  7 25  1  0  0  0  0
  7 29  1  0  0  0  0
  8 26  2  0  0  0  0
  9 27  2  0  0  0  0
 10 29  2  0  0  0  0
 11 36  1  0  0  0  0
 11 62  1  0  0  0  0
 12 37  1  0  0  0  0
 12 63  1  0  0  0  0
 13 40  1  0  0  0  0
 13 64  1  0  0  0  0
 14 41  1  0  0  0  0
 14 65  1  0  0  0  0
 15 42  1  0  0  0  0
 15 66  1  0  0  0  0
 16 43  1  0  0  0  0
 16 67  1  0  0  0  0
 17 44  1  0  0  0  0
 17 68  1  0  0  0  0
 18 45  1  0  0  0  0
 18 69  1  0  0  0  0
 19 46  1  0  0  0  0
 19 70  1  0  0  0  0
 20 21  1  0  0  0  0
 20 23  1  0  0  0  0
 20 47  1  0  0  0  0
 21 22  1  0  0  0  0
 21 48  1  0  0  0  0
 22 25  1  1  0  0  0
 22 49  1  0  0  0  0
 23 24  1  0  0  0  0
 23 50  1  0  0  0  0
 24 51  1  0  0  0  0
 25 52  1  0  0  0  0
 25 53  1  0  0  0  0
 26 28  1  0  0  0  0
 27 30  1  0  0  0  0
 28 32  2  0  0  0  0
 28 33  1  0  0  0  0
 29 31  1  0  0  0  0
 30 34  2  0  0  0  0
 30 35  1  0  0  0  0
 31 38  2  0  0  0  0
 31 39  1  0  0  0  0
 32 37  1  0  0  0  0
 32 56  1  0  0  0  0
 33 36  2  0  0  0  0
 33 57  1  0  0  0  0
 34 42  1  0  0  0  0
 34 58  1  0  0  0  0
 35 41  2  0  0  0  0
 35 59  1  0  0  0  0
 36 40  1  0  0  0  0
 37 40  2  0  0  0  0
 38 45  1  0  0  0  0
 38 60  1  0  0  0  0
 39 44  2  0  0  0  0
 39 61  1  0  0  0  0
 41 43  1  0  0  0  0
 42 43  2  0  0  0  0
 44 46  1  0  0  0  0
 45 46  2  0  0  0  0
M  END
> <PUBCHEM_COMPOUND_CID>
129729525

> <PUBCHEM_COMPOUND_CANONICALIZED>
1

> <PUBCHEM_CACTVS_COMPLEXITY>
1010

> <PUBCHEM_CACTVS_HBOND_ACCEPTOR>
18

> <PUBCHEM_CACTVS_HBOND_DONOR>
11

> <PUBCHEM_CACTVS_ROTATABLE_BOND>
10

> <PUBCHEM_CACTVS_SUBSKEYS>
AAADceB4PgAAAAAAAAQAAAAAAAAAAAAAAAA0YMEAAAAAAAABUAAAGgAACAAADBSwmAMwDoAABgCIAiDSCAACAAAkIAAAiAEGiMgZNzKCNRqicQElwBUPuYfK7DzOIAABCAAAQABAAAIQAACAAAAAAAAAAA==

> <PUBCHEM_IUPAC_OPENEYE_NAME>
[(2R,3R,4S,5R,6S)-3,5-dihydroxy-4,6-bis[(3,4,5-trihydroxybenzoyl)oxy]tetrahydropyran-2-yl]methyl 3,4,5-trihydroxybenzoate;silver

> <PUBCHEM_IUPAC_CAS_NAME>
silver;3,4,5-trihydroxybenzoic acid [(2R,3R,4S,5R,6S)-3,5-dihydroxy-4,6-bis[oxo-(3,4,5-trihydroxyphenyl)methoxy]-2-oxanyl]methyl ester

> <PUBCHEM_IUPAC_NAME_MARKUP>
[(2<I>R</I>,3<I>R</I>,4<I>S</I>,5<I>R</I>,6<I>S</I>)-3,5-dihydroxy-4,6-bis[(3,4,5-trihydroxybenzoyl)oxy]oxan-2-yl]methyl 3,4,5-trihydroxybenzoate;silver

> <PUBCHEM_IUPAC_NAME>
[(2R,3R,4S,5R,6S)-3,5-dihydroxy-4,6-bis[(3,4,5-trihydroxybenzoyl)oxy]oxan-2-yl]methyl 3,4,5-trihydroxybenzoate;silver

> <PUBCHEM_IUPAC_SYSTEMATIC_NAME>
[(2R,3R,4S,5R,6S)-3,5-bis(oxidanyl)-4,6-bis[[3,4,5-tris(oxidanyl)phenyl]carbonyloxy]oxan-2-yl]methyl 3,4,5-tris(oxidanyl)benzoate;silver

> <PUBCHEM_IUPAC_TRADITIONAL_NAME>
silver;3,4,5-trihydroxybenzoic acid [(2R,3R,4S,5R,6S)-4,6-digalloyloxy-3,5-dihydroxy-tetrahydropyran-2-yl]methyl ester

> <PUBCHEM_IUPAC_INCHI>
InChI=1S/C27H24O18.Ag/c28-11-1-8(2-12(29)18(11)34)24(39)42-7-17-21(37)23(44-25(40)9-3-13(30)19(35)14(31)4-9)22(38)27(43-17)45-26(41)10-5-15(32)20(36)16(33)6-10;/h1-6,17,21-23,27-38H,7H2;/t17-,21-,22-,23+,27+;/m1./s1

> <PUBCHEM_IUPAC_INCHIKEY>
GRUQYBKNTILMCI-IACMBERYSA-N

> <PUBCHEM_EXACT_MASS>
743.00136

> <PUBCHEM_MOLECULAR_FORMULA>
C27H24AgO18

> <PUBCHEM_MOLECULAR_WEIGHT>
744.3

> <PUBCHEM_OPENEYE_CAN_SMILES>
C1=C(C=C(C(=C1O)O)O)C(=O)OCC2C(C(C(C(O2)OC(=O)C3=CC(=C(C(=C3)O)O)O)O)OC(=O)C4=CC(=C(C(=C4)O)O)O)O.[Ag]

> <PUBCHEM_OPENEYE_ISO_SMILES>
C1=C(C=C(C(=C1O)O)O)C(=O)OC[C@@H]2[C@H]([C@@H]([C@H]([C@@H](O2)OC(=O)C3=CC(=C(C(=C3)O)O)O)O)OC(=O)C4=CC(=C(C(=C4)O)O)O)O.[Ag]

> <PUBCHEM_CACTVS_TPSA>
311

> <PUBCHEM_MONOISOTOPIC_WEIGHT>
743.00136

> <PUBCHEM_TOTAL_CHARGE>
0

> <PUBCHEM_HEAVY_ATOM_COUNT>
46

> <PUBCHEM_ATOM_DEF_STEREO_COUNT>
5

> <PUBCHEM_ATOM_UDEF_STEREO_COUNT>
0

> <PUBCHEM_BOND_DEF_STEREO_COUNT>
0

> <PUBCHEM_BOND_UDEF_STEREO_COUNT>
0

> <PUBCHEM_ISOTOPIC_ATOM_COUNT>
0

> <PUBCHEM_COMPONENT_COUNT>
2

> <PUBCHEM_CACTVS_TAUTO_COUNT>
-1

> <PUBCHEM_COORDINATE_TYPE>
1
5
255

> <PUBCHEM_BONDANNOTATIONS>
22  25  5
28  32  8
28  33  8
20  3  5
30  34  8
30  35  8
31  38  8
31  39  8
32  37  8
33  36  8
34  42  8
35  41  8
36  40  8
37  40  8
38  45  8
39  44  8
21  4  6
41  43  8
42  43  8
44  46  8
45  46  8
23  5  6
24  6  5

$$$$
129727514
  -OEChem-04052116542D

 71 74  0     1  0  0  0  0  0999 V2000
    6.8671    1.0000    0.0000 O   0  0  0  0  0  0  0  0  0  0  0  0
    6.8671   -2.0000    0.0000 O   0  0  0  0  0  0  0  0  0  0  0  0
    5.1350   -1.0000    0.0000 O   0  0  0  0  0  0  0  0  0  0  0  0
    8.5991   -1.0000    0.0000 O   0  0  0  0  0  0  0  0  0  0  0  0
    8.5991    1.0000    0.0000 O   0  0  0  0  0  0  0  0  0  0  0  0
    5.1350    2.0000    0.0000 O   0  0  0  0  0  0  0  0  0  0  0  0
    5.1350   -2.0000    0.0000 O   0  0  0  0  0  0  0  0  0  0  0  0
    7.7331    2.5000    0.0000 O   0  0  0  0  0  0  0  0  0  0  0  0
    4.2690   -5.5000    0.0000 O   0  0  0  0  0  0  0  0  0  0  0  0
    7.7331   -5.5000    0.0000 O   0  0  0  0  0  0  0  0  0  0  0  0
    6.0010   -6.5000    0.0000 O   0  0  0  0  0  0  0  0  0  0  0  0
    3.4030    2.0000    0.0000 O   0  0  0  0  0  0  0  0  0  0  0  0
   10.3312    5.0000    0.0000 O   0  0  0  0  0  0  0  0  0  0  0  0
   12.0632    2.0000    0.0000 O   0  0  0  0  0  0  0  0  0  0  0  0
   12.0632    4.0000    0.0000 O   0  0  0  0  0  0  0  0  0  0  0  0
    2.5369    5.5000    0.0000 O   0  0  0  0  0  0  0  0  0  0  0  0
    6.0010    5.5000    0.0000 O   0  0  0  0  0  0  0  0  0  0  0  0
    4.2690    6.5000    0.0000 O   0  0  0  0  0  0  0  0  0  0  0  0
    6.8671   -1.0000    0.0000 C   0  0  1  0  0  0  0  0  0  0  0  0
    6.0010   -0.5000    0.0000 C   0  0  1  0  0  0  0  0  0  0  0  0
    6.0010    0.5000    0.0000 C   0  0  1  0  0  0  0  0  0  0  0  0
    7.7331   -0.5000    0.0000 C   0  0  2  0  0  0  0  0  0  0  0  0
    7.7331    0.5000    0.0000 C   0  0  1  0  0  0  0  0  0  0  0  0
    5.1350    1.0000    0.0000 C   0  0  0  0  0  0  0  0  0  0  0  0
    6.0010   -2.5000    0.0000 C   0  0  0  0  0  0  0  0  0  0  0  0
    6.0010   -3.5000    0.0000 C   0  0  3  0  0  0  0  0  0  0  0  0
    5.1350   -4.0000    0.0000 C   0  0  0  0  0  0  0  0  0  0  0  0
    8.5991    2.0000    0.0000 C   0  0  0  0  0  0  0  0  0  0  0  0
    6.8671   -4.0000    0.0000 C   0  0  0  0  0  0  0  0  0  0  0  0
    5.1350   -5.0000    0.0000 C   0  0  0  0  0  0  0  0  0  0  0  0
    4.2690    2.5000    0.0000 C   0  0  0  0  0  0  0  0  0  0  0  0
    6.8671   -5.0000    0.0000 C   0  0  0  0  0  0  0  0  0  0  0  0
    6.0010   -5.5000    0.0000 C   0  0  0  0  0  0  0  0  0  0  0  0
    9.4651    2.5000    0.0000 C   0  0  0  0  0  0  0  0  0  0  0  0
    4.2690    3.5000    0.0000 C   0  0  0  0  0  0  0  0  0  0  0  0
   10.3312    2.0000    0.0000 C   0  0  0  0  0  0  0  0  0  0  0  0
    9.4651    3.5000    0.0000 C   0  0  0  0  0  0  0  0  0  0  0  0
    5.1350    4.0000    0.0000 C   0  0  0  0  0  0  0  0  0  0  0  0
    3.4030    4.0000    0.0000 C   0  0  0  0  0  0  0  0  0  0  0  0
   10.3312    4.0000    0.0000 C   0  0  0  0  0  0  0  0  0  0  0  0
   11.1972    2.5000    0.0000 C   0  0  0  0  0  0  0  0  0  0  0  0
   11.1972    3.5000    0.0000 C   0  0  0  0  0  0  0  0  0  0  0  0
    3.4030    5.0000    0.0000 C   0  0  0  0  0  0  0  0  0  0  0  0
    5.1350    5.0000    0.0000 C   0  0  0  0  0  0  0  0  0  0  0  0
    4.2690    5.5000    0.0000 C   0  0  0  0  0  0  0  0  0  0  0  0
    6.3301   -1.3100    0.0000 H   0  0  0  0  0  0  0  0  0  0  0  0
    6.0010   -1.1200    0.0000 H   0  0  0  0  0  0  0  0  0  0  0  0
    6.0010    1.1200    0.0000 H   0  0  0  0  0  0  0  0  0  0  0  0
    7.7331   -1.1200    0.0000 H   0  0  0  0  0  0  0  0  0  0  0  0
    7.7331    1.1200    0.0000 H   0  0  0  0  0  0  0  0  0  0  0  0
    4.5244    1.1077    0.0000 H   0  0  0  0  0  0  0  0  0  0  0  0
    4.9230    0.4174    0.0000 H   0  0  0  0  0  0  0  0  0  0  0  0
    4.5981   -0.6900    0.0000 H   0  0  0  0  0  0  0  0  0  0  0  0
    9.1360   -0.6900    0.0000 H   0  0  0  0  0  0  0  0  0  0  0  0
    5.4641   -3.1900    0.0000 H   0  0  0  0  0  0  0  0  0  0  0  0
    4.9230   -3.4174    0.0000 H   0  0  0  0  0  0  0  0  0  0  0  0
    4.5244   -4.1077    0.0000 H   0  0  0  0  0  0  0  0  0  0  0  0
    7.4040   -3.6900    0.0000 H   0  0  0  0  0  0  0  0  0  0  0  0
   10.3312    1.3800    0.0000 H   0  0  0  0  0  0  0  0  0  0  0  0
    8.9282    3.8100    0.0000 H   0  0  0  0  0  0  0  0  0  0  0  0
    3.7320   -5.1900    0.0000 H   0  0  0  0  0  0  0  0  0  0  0  0
    8.2700   -5.1900    0.0000 H   0  0  0  0  0  0  0  0  0  0  0  0
    5.4641   -6.8100    0.0000 H   0  0  0  0  0  0  0  0  0  0  0  0
    5.6720    3.6900    0.0000 H   0  0  0  0  0  0  0  0  0  0  0  0
    2.8660    3.6900    0.0000 H   0  0  0  0  0  0  0  0  0  0  0  0
    9.7942    5.3100    0.0000 H   0  0  0  0  0  0  0  0  0  0  0  0
   12.0632    1.3800    0.0000 H   0  0  0  0  0  0  0  0  0  0  0  0
   12.6002    3.6900    0.0000 H   0  0  0  0  0  0  0  0  0  0  0  0
    2.0000    5.1900    0.0000 H   0  0  0  0  0  0  0  0  0  0  0  0
    6.0010    6.1200    0.0000 H   0  0  0  0  0  0  0  0  0  0  0  0
    3.7320    6.8100    0.0000 H   0  0  0  0  0  0  0  0  0  0  0  0
  1 21  1  0  0  0  0
  1 23  1  0  0  0  0
 19  2  1  1  0  0  0
  2 25  1  0  0  0  0
 20  3  1  6  0  0  0
  3 53  1  0  0  0  0
 22  4  1  6  0  0  0
  4 54  1  0  0  0  0
 23  5  1  1  0  0  0
  5 28  1  0  0  0  0
  6 24  1  0  0  0  0
  6 31  1  0  0  0  0
  7 25  2  0  0  0  0
  8 28  2  0  0  0  0
  9 30  1  0  0  0  0
  9 61  1  0  0  0  0
 10 32  1  0  0  0  0
 10 62  1  0  0  0  0
 11 33  1  0  0  0  0
 11 63  1  0  0  0  0
 12 31  2  0  0  0  0
 13 40  1  0  0  0  0
 13 66  1  0  0  0  0
 14 41  1  0  0  0  0
 14 67  1  0  0  0  0
 15 42  1  0  0  0  0
 15 68  1  0  0  0  0
 16 43  1  0  0  0  0
 16 69  1  0  0  0  0
 17 44  1  0  0  0  0
 17 70  1  0  0  0  0
 18 45  1  0  0  0  0
 18 71  1  0  0  0  0
 19 20  1  0  0  0  0
 19 22  1  0  0  0  0
 19 46  1  0  0  0  0
 20 21  1  0  0  0  0
 20 47  1  0  0  0  0
 21 24  1  1  0  0  0
 21 48  1  0  0  0  0
 22 23  1  0  0  0  0
 22 49  1  0  0  0  0
 23 50  1  0  0  0  0
 24 51  1  0  0  0  0
 24 52  1  0  0  0  0
 25 26  1  0  0  0  0
 26 27  1  0  0  0  0
 26 29  1  0  0  0  0
 26 55  1  0  0  0  0
 27 30  1  0  0  0  0
 27 56  1  0  0  0  0
 27 57  1  0  0  0  0
 28 34  1  0  0  0  0
 29 32  2  0  0  0  0
 29 58  1  0  0  0  0
 30 33  2  0  0  0  0
 31 35  1  0  0  0  0
 32 33  1  0  0  0  0
 34 36  2  0  0  0  0
 34 37  1  0  0  0  0
 35 38  2  0  0  0  0
 35 39  1  0  0  0  0
 36 41  1  0  0  0  0
 36 59  1  0  0  0  0
 37 40  2  0  0  0  0
 37 60  1  0  0  0  0
 38 44  1  0  0  0  0
 38 64  1  0  0  0  0
 39 43  2  0  0  0  0
 39 65  1  0  0  0  0
 40 42  1  0  0  0  0
 41 42  2  0  0  0  0
 43 45  1  0  0  0  0
 44 45  2  0  0  0  0
M  END
> <PUBCHEM_COMPOUND_CID>
129727514

> <PUBCHEM_COMPOUND_CANONICALIZED>
1

> <PUBCHEM_CACTVS_COMPLEXITY>
1150

> <PUBCHEM_CACTVS_HBOND_ACCEPTOR>
18

> <PUBCHEM_CACTVS_HBOND_DONOR>
11

> <PUBCHEM_CACTVS_ROTATABLE_BOND>
10

> <PUBCHEM_CACTVS_SUBSKEYS>
AAADceB4PgAAAAAAAAAAAAAAAAAAAAAAAAA0YIEAAAAAAAABQAAAGgAACAAADRSwmAMwDoAABgCIAiDSCAACAAAkIAAAiAEGiMgZNzKCNRqicQElwBUPuYfK7DzOIAABCAAAQABAAAIQAACAAAAAAAAAAA==

> <PUBCHEM_IUPAC_OPENEYE_NAME>
[(2R,3R,4S,5R,6S)-3,5-dihydroxy-6-(3,4,5-trihydroxybenzoyl)oxy-4-(3,4,5-trihydroxycyclohexa-2,4-diene-1-carbonyl)oxy-tetrahydropyran-2-yl]methyl 3,4,5-trihydroxybenzoate

> <PUBCHEM_IUPAC_CAS_NAME>
3,4,5-trihydroxybenzoic acid [(2R,3R,4S,5R,6S)-3,5-dihydroxy-4-[oxo-(3,4,5-trihydroxy-1-cyclohexa-2,4-dienyl)methoxy]-6-[oxo-(3,4,5-trihydroxyphenyl)methoxy]-2-oxanyl]methyl ester

> <PUBCHEM_IUPAC_NAME_MARKUP>
[(2<I>R</I>,3<I>R</I>,4<I>S</I>,5<I>R</I>,6<I>S</I>)-3,5-dihydroxy-6-(3,4,5-trihydroxybenzoyl)oxy-4-(3,4,5-trihydroxycyclohexa-2,4-diene-1-carbonyl)oxyoxan-2-yl]methyl 3,4,5-trihydroxybenzoate

> <PUBCHEM_IUPAC_NAME>
[(2R,3R,4S,5R,6S)-3,5-dihydroxy-6-(3,4,5-trihydroxybenzoyl)oxy-4-(3,4,5-trihydroxycyclohexa-2,4-diene-1-carbonyl)oxyoxan-2-yl]methyl 3,4,5-trihydroxybenzoate

> <PUBCHEM_IUPAC_SYSTEMATIC_NAME>
[(2R,3R,4S,5R,6S)-3,5-bis(oxidanyl)-4-[3,4,5-tris(oxidanyl)cyclohexa-2,4-dien-1-yl]carbonyloxy-6-[3,4,5-tris(oxidanyl)phenyl]carbonyloxy-oxan-2-yl]methyl 3,4,5-tris(oxidanyl)benzoate

> <PUBCHEM_IUPAC_TRADITIONAL_NAME>
3,4,5-trihydroxybenzoic acid [(2R,3R,4S,5R,6S)-6-galloyloxy-3,5-dihydroxy-4-(3,4,5-trihydroxycyclohexa-2,4-diene-1-carbonyl)oxy-tetrahydropyran-2-yl]methyl ester

> <PUBCHEM_IUPAC_INCHI>
InChI=1S/C27H26O18/c28-11-1-8(2-12(29)18(11)34)24(39)42-7-17-21(37)23(44-25(40)9-3-13(30)19(35)14(31)4-9)22(38)27(43-17)45-26(41)10-5-15(32)20(36)16(33)6-10/h1-3,5-6,9,17,21-23,27-38H,4,7H2/t9?,17-,21-,22-,23+,27+/m1/s1

> <PUBCHEM_IUPAC_INCHIKEY>
HMBQXSQWRFAZRJ-AXMKTQSHSA-N

> <PUBCHEM_XLOGP3_AA>
-0.5

> <PUBCHEM_EXACT_MASS>
638.111914

> <PUBCHEM_MOLECULAR_FORMULA>
C27H26O18

> <PUBCHEM_MOLECULAR_WEIGHT>
638.5

> <PUBCHEM_OPENEYE_CAN_SMILES>
C1C(C=C(C(=C1O)O)O)C(=O)OC2C(C(OC(C2O)OC(=O)C3=CC(=C(C(=C3)O)O)O)COC(=O)C4=CC(=C(C(=C4)O)O)O)O

> <PUBCHEM_OPENEYE_ISO_SMILES>
C1C(C=C(C(=C1O)O)O)C(=O)O[C@H]2[C@@H]([C@H](O[C@H]([C@@H]2O)OC(=O)C3=CC(=C(C(=C3)O)O)O)COC(=O)C4=CC(=C(C(=C4)O)O)O)O

> <PUBCHEM_CACTVS_TPSA>
311

> <PUBCHEM_MONOISOTOPIC_WEIGHT>
638.111914

> <PUBCHEM_TOTAL_CHARGE>
0

> <PUBCHEM_HEAVY_ATOM_COUNT>
45

> <PUBCHEM_ATOM_DEF_STEREO_COUNT>
5

> <PUBCHEM_ATOM_UDEF_STEREO_COUNT>
1

> <PUBCHEM_BOND_DEF_STEREO_COUNT>
0

> <PUBCHEM_BOND_UDEF_STEREO_COUNT>
0

> <PUBCHEM_ISOTOPIC_ATOM_COUNT>
0

> <PUBCHEM_COMPONENT_COUNT>
1

> <PUBCHEM_CACTVS_TAUTO_COUNT>
-1

> <PUBCHEM_COORDINATE_TYPE>
1
5
255

> <PUBCHEM_BONDANNOTATIONS>
19  2  5
21  24  5
26  25  3
20  3  6
34  36  8
34  37  8
35  38  8
35  39  8
36  41  8
37  40  8
38  44  8
39  43  8
22  4  6
40  42  8
41  42  8
43  45  8
44  45  8
23  5  5

$$$$
129723530
  -OEChem-04052116542D

 69 72  0     1  0  0  0  0  0999 V2000
    8.2331   -1.1545    0.0000 Cl  0  0  0  0  0  0  0  0  0  0  0  0
    8.5991    0.2115    0.0000 O   0  0  0  0  0  0  0  0  0  0  0  0
    6.0010    1.7115    0.0000 O   0  0  0  0  0  0  0  0  0  0  0  0
    7.7331    2.7115    0.0000 O   0  0  0  0  0  0  0  0  0  0  0  0
    6.0010   -0.2885    0.0000 O   0  0  0  0  0  0  0  0  0  0  0  0
    7.2331   -1.1545    0.0000 O   0  0  0  0  0  0  0  0  0  0  0  0
   10.3312    1.2115    0.0000 O   0  0  0  0  0  0  0  0  0  0  0  0
    6.8671    3.2115    0.0000 O   0  0  0  0  0  0  0  0  0  0  0  0
    8.7331   -2.0205    0.0000 O   0  0  0  0  0  0  0  0  0  0  0  0
   11.1972    2.7115    0.0000 O   0  0  0  0  0  0  0  0  0  0  0  0
    2.5369    2.7115    0.0000 O   0  0  0  0  0  0  0  0  0  0  0  0
    4.2690    5.7115    0.0000 O   0  0  0  0  0  0  0  0  0  0  0  0
    2.5369    4.7115    0.0000 O   0  0  0  0  0  0  0  0  0  0  0  0
    7.7331   -5.4846    0.0000 O   0  0  0  0  0  0  0  0  0  0  0  0
    4.7331   -3.7526    0.0000 O   0  0  0  0  0  0  0  0  0  0  0  0
    5.7331   -5.4846    0.0000 O   0  0  0  0  0  0  0  0  0  0  0  0
   14.6613    1.7115    0.0000 O   0  0  0  0  0  0  0  0  0  0  0  0
   12.9292   -1.2885    0.0000 O   0  0  0  0  0  0  0  0  0  0  0  0
   14.6613   -0.2885    0.0000 O   0  0  0  0  0  0  0  0  0  0  0  0
    6.8671    1.2115    0.0000 C   0  0  1  0  0  0  0  0  0  0  0  0
    7.7331    1.7115    0.0000 C   0  0  1  0  0  0  0  0  0  0  0  0
    8.5991    1.2115    0.0000 C   0  0  1  0  0  0  0  0  0  0  0  0
    6.8671    0.2115    0.0000 C   0  0  2  0  0  0  0  0  0  0  0  0
    7.7331   -0.2885    0.0000 C   0  0  1  0  0  0  0  0  0  0  0  0
    9.4651    1.7115    0.0000 C   0  0  0  0  0  0  0  0  0  0  0  0
    6.0010    2.7115    0.0000 C   0  0  0  0  0  0  0  0  0  0  0  0
    7.7331   -2.0205    0.0000 C   0  0  0  0  0  0  0  0  0  0  0  0
    5.1350    3.2115    0.0000 C   0  0  0  0  0  0  0  0  0  0  0  0
   11.1972    1.7115    0.0000 C   0  0  0  0  0  0  0  0  0  0  0  0
    7.2331   -2.8865    0.0000 C   0  0  0  0  0  0  0  0  0  0  0  0
   12.0632    1.2115    0.0000 C   0  0  0  0  0  0  0  0  0  0  0  0
    5.1350    4.2115    0.0000 C   0  0  0  0  0  0  0  0  0  0  0  0
    4.2690    2.7115    0.0000 C   0  0  0  0  0  0  0  0  0  0  0  0
    6.2331   -2.8865    0.0000 C   0  0  0  0  0  0  0  0  0  0  0  0
    7.7331   -3.7526    0.0000 C   0  0  0  0  0  0  0  0  0  0  0  0
    3.4030    3.2115    0.0000 C   0  0  0  0  0  0  0  0  0  0  0  0
    4.2690    4.7115    0.0000 C   0  0  0  0  0  0  0  0  0  0  0  0
   12.0632    0.2115    0.0000 C   0  0  0  0  0  0  0  0  0  0  0  0
   12.9292    1.7115    0.0000 C   0  0  0  0  0  0  0  0  0  0  0  0
    3.4030    4.2115    0.0000 C   0  0  0  0  0  0  0  0  0  0  0  0
    7.2331   -4.6186    0.0000 C   0  0  0  0  0  0  0  0  0  0  0  0
    5.7331   -3.7526    0.0000 C   0  0  0  0  0  0  0  0  0  0  0  0
    6.2331   -4.6186    0.0000 C   0  0  0  0  0  0  0  0  0  0  0  0
   13.7953    1.2115    0.0000 C   0  0  0  0  0  0  0  0  0  0  0  0
   12.9292   -0.2885    0.0000 C   0  0  0  0  0  0  0  0  0  0  0  0
   13.7953    0.2115    0.0000 C   0  0  0  0  0  0  0  0  0  0  0  0
    6.8671    1.8315    0.0000 H   0  0  0  0  0  0  0  0  0  0  0  0
    8.2700    2.0215    0.0000 H   0  0  0  0  0  0  0  0  0  0  0  0
    9.1360    0.9015    0.0000 H   0  0  0  0  0  0  0  0  0  0  0  0
    6.3301    0.5215    0.0000 H   0  0  0  0  0  0  0  0  0  0  0  0
    9.8637    2.1865    0.0000 H   0  0  0  0  0  0  0  0  0  0  0  0
    9.0666    2.1865    0.0000 H   0  0  0  0  0  0  0  0  0  0  0  0
    8.2700    3.0215    0.0000 H   0  0  0  0  0  0  0  0  0  0  0  0
    5.4641    0.0215    0.0000 H   0  0  0  0  0  0  0  0  0  0  0  0
    5.6720    4.5215    0.0000 H   0  0  0  0  0  0  0  0  0  0  0  0
    4.2690    2.0915    0.0000 H   0  0  0  0  0  0  0  0  0  0  0  0
    5.9231   -2.3496    0.0000 H   0  0  0  0  0  0  0  0  0  0  0  0
    8.3531   -3.7526    0.0000 H   0  0  0  0  0  0  0  0  0  0  0  0
   11.5263   -0.0985    0.0000 H   0  0  0  0  0  0  0  0  0  0  0  0
   12.9292    2.3315    0.0000 H   0  0  0  0  0  0  0  0  0  0  0  0
    2.0000    3.0215    0.0000 H   0  0  0  0  0  0  0  0  0  0  0  0
    4.8059    6.0215    0.0000 H   0  0  0  0  0  0  0  0  0  0  0  0
    2.5369    5.3315    0.0000 H   0  0  0  0  0  0  0  0  0  0  0  0
    8.3531   -5.4846    0.0000 H   0  0  0  0  0  0  0  0  0  0  0  0
    4.4231   -4.2895    0.0000 H   0  0  0  0  0  0  0  0  0  0  0  0
    6.0431   -6.0215    0.0000 H   0  0  0  0  0  0  0  0  0  0  0  0
   14.6613    2.3315    0.0000 H   0  0  0  0  0  0  0  0  0  0  0  0
   13.4662   -1.5985    0.0000 H   0  0  0  0  0  0  0  0  0  0  0  0
   15.1982    0.0215    0.0000 H   0  0  0  0  0  0  0  0  0  0  0  0
  1 24  1  0  0  0  0
  2 22  1  0  0  0  0
  2 24  1  0  0  0  0
 20  3  1  1  0  0  0
  3 26  1  0  0  0  0
 21  4  1  6  0  0  0
  4 53  1  0  0  0  0
 23  5  1  6  0  0  0
  5 54  1  0  0  0  0
 24  6  1  6  0  0  0
  6 27  1  0  0  0  0
  7 25  1  0  0  0  0
  7 29  1  0  0  0  0
  8 26  2  0  0  0  0
  9 27  2  0  0  0  0
 10 29  2  0  0  0  0
 11 36  1  0  0  0  0
 11 61  1  0  0  0  0
 12 37  1  0  0  0  0
 12 62  1  0  0  0  0
 13 40  1  0  0  0  0
 13 63  1  0  0  0  0
 14 41  1  0  0  0  0
 14 64  1  0  0  0  0
 15 42  1  0  0  0  0
 15 65  1  0  0  0  0
 16 43  1  0  0  0  0
 16 66  1  0  0  0  0
 17 44  1  0  0  0  0
 17 67  1  0  0  0  0
 18 45  1  0  0  0  0
 18 68  1  0  0  0  0
 19 46  1  0  0  0  0
 19 69  1  0  0  0  0
 20 21  1  0  0  0  0
 20 23  1  0  0  0  0
 20 47  1  0  0  0  0
 21 22  1  0  0  0  0
 21 48  1  0  0  0  0
 22 25  1  1  0  0  0
 22 49  1  0  0  0  0
 23 24  1  0  0  0  0
 23 50  1  0  0  0  0
 25 51  1  0  0  0  0
 25 52  1  0  0  0  0
 26 28  1  0  0  0  0
 27 30  1  0  0  0  0
 28 32  2  0  0  0  0
 28 33  1  0  0  0  0
 29 31  1  0  0  0  0
 30 34  2  0  0  0  0
 30 35  1  0  0  0  0
 31 38  2  0  0  0  0
 31 39  1  0  0  0  0
 32 37  1  0  0  0  0
 32 55  1  0  0  0  0
 33 36  2  0  0  0  0
 33 56  1  0  0  0  0
 34 42  1  0  0  0  0
 34 57  1  0  0  0  0
 35 41  2  0  0  0  0
 35 58  1  0  0  0  0
 36 40  1  0  0  0  0
 37 40  2  0  0  0  0
 38 45  1  0  0  0  0
 38 59  1  0  0  0  0
 39 44  2  0  0  0  0
 39 60  1  0  0  0  0
 41 43  1  0  0  0  0
 42 43  2  0  0  0  0
 44 46  1  0  0  0  0
 45 46  2  0  0  0  0
M  END
> <PUBCHEM_COMPOUND_CID>
129723530

> <PUBCHEM_COMPOUND_CANONICALIZED>
1

> <PUBCHEM_CACTVS_COMPLEXITY>
1060

> <PUBCHEM_CACTVS_HBOND_ACCEPTOR>
18

> <PUBCHEM_CACTVS_HBOND_DONOR>
11

> <PUBCHEM_CACTVS_ROTATABLE_BOND>
10

> <PUBCHEM_CACTVS_SUBSKEYS>
AAADceB4PgAEAAAAAAAAAAAAAAAAAAAAAAA0YMEAAAAAAAABUAAAGgIACAAADBagmAIwDoAABgCIAiDSCAACAAAkIAAAiAEGi8gZNzKDNRqicQElwBUPuYfK7DzOIAABCAAAQABAAAIQAACAAAAAAAAAAA==

> <PUBCHEM_IUPAC_OPENEYE_NAME>
[(2R,3R,4S,5R,6S)-6-chloro-3,5-dihydroxy-4,6-bis[(3,4,5-trihydroxybenzoyl)oxy]tetrahydropyran-2-yl]methyl 3,4,5-trihydroxybenzoate

> <PUBCHEM_IUPAC_CAS_NAME>
3,4,5-trihydroxybenzoic acid [(2R,3R,4S,5R,6S)-6-chloro-3,5-dihydroxy-4,6-bis[oxo-(3,4,5-trihydroxyphenyl)methoxy]-2-oxanyl]methyl ester

> <PUBCHEM_IUPAC_NAME_MARKUP>
[(2<I>R</I>,3<I>R</I>,4<I>S</I>,5<I>R</I>,6<I>S</I>)-6-chloro-3,5-dihydroxy-4,6-bis[(3,4,5-trihydroxybenzoyl)oxy]oxan-2-yl]methyl 3,4,5-trihydroxybenzoate

> <PUBCHEM_IUPAC_NAME>
[(2R,3R,4S,5R,6S)-6-chloro-3,5-dihydroxy-4,6-bis[(3,4,5-trihydroxybenzoyl)oxy]oxan-2-yl]methyl 3,4,5-trihydroxybenzoate

> <PUBCHEM_IUPAC_SYSTEMATIC_NAME>
[(2R,3R,4S,5R,6S)-6-chloranyl-3,5-bis(oxidanyl)-4,6-bis[[3,4,5-tris(oxidanyl)phenyl]carbonyloxy]oxan-2-yl]methyl 3,4,5-tris(oxidanyl)benzoate

> <PUBCHEM_IUPAC_TRADITIONAL_NAME>
3,4,5-trihydroxybenzoic acid [(2R,3R,4S,5R,6S)-6-chloro-4,6-digalloyloxy-3,5-dihydroxy-tetrahydropyran-2-yl]methyl ester

> <PUBCHEM_IUPAC_INCHI>
InChI=1S/C27H23ClO18/c28-27(46-26(42)10-5-15(33)20(37)16(34)6-10)23(39)22(44-25(41)9-3-13(31)19(36)14(32)4-9)21(38)17(45-27)7-43-24(40)8-1-11(29)18(35)12(30)2-8/h1-6,17,21-23,29-39H,7H2/t17-,21-,22+,23-,27+/m1/s1

> <PUBCHEM_IUPAC_INCHIKEY>
FLCGJWSSPCFBFW-VFTFQOQOSA-N

> <PUBCHEM_XLOGP3_AA>
0.9

> <PUBCHEM_EXACT_MASS>
670.057292

> <PUBCHEM_MOLECULAR_FORMULA>
C27H23ClO18

> <PUBCHEM_MOLECULAR_WEIGHT>
670.9

> <PUBCHEM_OPENEYE_CAN_SMILES>
C1=C(C=C(C(=C1O)O)O)C(=O)OCC2C(C(C(C(O2)(OC(=O)C3=CC(=C(C(=C3)O)O)O)Cl)O)OC(=O)C4=CC(=C(C(=C4)O)O)O)O

> <PUBCHEM_OPENEYE_ISO_SMILES>
C1=C(C=C(C(=C1O)O)O)C(=O)OC[C@@H]2[C@H]([C@@H]([C@H]([C@](O2)(OC(=O)C3=CC(=C(C(=C3)O)O)O)Cl)O)OC(=O)C4=CC(=C(C(=C4)O)O)O)O

> <PUBCHEM_CACTVS_TPSA>
311

> <PUBCHEM_MONOISOTOPIC_WEIGHT>
670.057292

> <PUBCHEM_TOTAL_CHARGE>
0

> <PUBCHEM_HEAVY_ATOM_COUNT>
46

> <PUBCHEM_ATOM_DEF_STEREO_COUNT>
5

> <PUBCHEM_ATOM_UDEF_STEREO_COUNT>
0

> <PUBCHEM_BOND_DEF_STEREO_COUNT>
0

> <PUBCHEM_BOND_UDEF_STEREO_COUNT>
0

> <PUBCHEM_ISOTOPIC_ATOM_COUNT>
0

> <PUBCHEM_COMPONENT_COUNT>
1

> <PUBCHEM_CACTVS_TAUTO_COUNT>
-1

> <PUBCHEM_COORDINATE_TYPE>
1
5
255

> <PUBCHEM_BONDANNOTATIONS>
22  25  5
28  32  8
28  33  8
20  3  5
30  34  8
30  35  8
31  38  8
31  39  8
32  37  8
33  36  8
34  42  8
35  41  8
36  40  8
37  40  8
38  45  8
39  44  8
21  4  6
41  43  8
42  43  8
44  46  8
45  46  8
23  5  6
24  6  6

$$$$
129705226
  -OEChem-04052116542D

 68 72  0     1  0  0  0  0  0999 V2000
    8.5996   -0.0000    0.0000 O   0  0  0  0  0  0  0  0  0  0  0  0
    6.8671   -1.0000    0.0000 O   0  0  0  0  0  0  0  0  0  0  0  0
    7.7331    1.5000    0.0000 O   0  0  0  0  0  0  0  0  0  0  0  0
    7.7331   -1.5000    0.0000 O   0  0  0  0  0  0  0  0  0  0  0  0
    6.8671    2.0000    0.0000 O   0  0  0  0  0  0  0  0  0  0  0  0
    5.1350    1.0000    0.0000 O   0  0  0  0  0  0  0  0  0  0  0  0
    5.1350   -2.0000    0.0000 O   0  0  0  0  0  0  0  0  0  0  0  0
    9.4651   -1.5000    0.0000 O   0  0  0  0  0  0  0  0  0  0  0  0
    5.1350    2.0000    0.0000 O   0  0  0  0  0  0  0  0  0  0  0  0
    3.4030   -2.0000    0.0000 O   0  0  0  0  0  0  0  0  0  0  0  0
   10.3312   -5.0000    0.0000 O   0  0  0  0  0  0  0  0  0  0  0  0
    6.8671   -5.0000    0.0000 O   0  0  0  0  0  0  0  0  0  0  0  0
    4.2690    5.5000    0.0000 O   0  0  0  0  0  0  0  0  0  0  0  0
    7.7331    5.5000    0.0000 O   0  0  0  0  0  0  0  0  0  0  0  0
    8.5991   -6.0000    0.0000 O   0  0  0  0  0  0  0  0  0  0  0  0
    6.0010    6.5000    0.0000 O   0  0  0  0  0  0  0  0  0  0  0  0
    6.0010   -5.5000    0.0000 O   0  0  0  0  0  0  0  0  0  0  0  0
    2.5369   -5.5000    0.0000 O   0  0  0  0  0  0  0  0  0  0  0  0
    4.2690   -6.5000    0.0000 O   0  0  0  0  0  0  0  0  0  0  0  0
    7.7331    0.5000    0.0000 C   0  0  1  0  0  0  0  0  0  0  0  0
    7.7331   -0.5000    0.0000 C   0  0  2  0  0  0  0  0  0  0  0  0
    6.8671    1.0000    0.0000 C   0  0  2  0  0  0  0  0  0  0  0  0
    6.0010    0.5000    0.0000 C   0  0  1  0  0  0  0  0  0  0  0  0
    6.0010   -0.5000    0.0000 C   0  0  1  0  0  0  0  0  0  0  0  0
    5.1350   -1.0000    0.0000 C   0  0  0  0  0  0  0  0  0  0  0  0
    8.5991   -2.0000    0.0000 C   0  0  0  0  0  0  0  0  0  0  0  0
    6.0010    2.5000    0.0000 C   0  0  0  0  0  0  0  0  0  0  0  0
    8.5991   -3.0000    0.0000 C   0  0  0  0  0  0  0  0  0  0  0  0
    6.0010    3.5000    0.0000 C   0  0  0  0  0  0  0  0  0  0  0  0
    4.2690   -2.5000    0.0000 C   0  0  0  0  0  0  0  0  0  0  0  0
    7.7331   -3.5000    0.0000 C   0  0  0  0  0  0  0  0  0  0  0  0
    9.4651   -3.5000    0.0000 C   0  0  0  0  0  0  0  0  0  0  0  0
    6.8671    4.0000    0.0000 C   0  0  0  0  0  0  0  0  0  0  0  0
    5.1350    4.0000    0.0000 C   0  0  0  0  0  0  0  0  0  0  0  0
    4.2690   -3.5000    0.0000 C   0  0  0  0  0  0  0  0  0  0  0  0
    9.4651   -4.5000    0.0000 C   0  0  0  0  0  0  0  0  0  0  0  0
    7.7331   -4.5000    0.0000 C   0  0  0  0  0  0  0  0  0  0  0  0
    5.1350    5.0000    0.0000 C   0  0  0  0  0  0  0  0  0  0  0  0
    6.8671    5.0000    0.0000 C   0  0  0  0  0  0  0  0  0  0  0  0
    8.5991   -5.0000    0.0000 C   0  0  0  0  0  0  0  0  0  0  0  0
    6.0010    5.5000    0.0000 C   0  0  0  0  0  0  0  0  0  0  0  0
    3.4030   -4.0000    0.0000 C   0  0  0  0  0  0  0  0  0  0  0  0
    5.1350   -4.0000    0.0000 C   0  0  0  0  0  0  0  0  0  0  0  0
    5.1350   -5.0000    0.0000 C   0  0  0  0  0  0  0  0  0  0  0  0
    3.4030   -5.0000    0.0000 C   0  0  0  0  0  0  0  0  0  0  0  0
    4.2690   -5.5000    0.0000 C   0  0  0  0  0  0  0  0  0  0  0  0
    6.3301    1.3100    0.0000 H   0  0  0  0  0  0  0  0  0  0  0  0
    5.4641    0.1900    0.0000 H   0  0  0  0  0  0  0  0  0  0  0  0
    6.0010   -1.1200    0.0000 H   0  0  0  0  0  0  0  0  0  0  0  0
    8.2700    1.8100    0.0000 H   0  0  0  0  0  0  0  0  0  0  0  0
    4.9230   -0.4174    0.0000 H   0  0  0  0  0  0  0  0  0  0  0  0
    4.5244   -1.1077    0.0000 H   0  0  0  0  0  0  0  0  0  0  0  0
    4.5981    0.6900    0.0000 H   0  0  0  0  0  0  0  0  0  0  0  0
    7.1962   -3.1900    0.0000 H   0  0  0  0  0  0  0  0  0  0  0  0
   10.0021   -3.1900    0.0000 H   0  0  0  0  0  0  0  0  0  0  0  0
    7.4040    3.6900    0.0000 H   0  0  0  0  0  0  0  0  0  0  0  0
    4.5981    3.6900    0.0000 H   0  0  0  0  0  0  0  0  0  0  0  0
    2.8660   -3.6900    0.0000 H   0  0  0  0  0  0  0  0  0  0  0  0
    5.6720   -3.6900    0.0000 H   0  0  0  0  0  0  0  0  0  0  0  0
   10.8681   -4.6900    0.0000 H   0  0  0  0  0  0  0  0  0  0  0  0
    6.8671   -5.6200    0.0000 H   0  0  0  0  0  0  0  0  0  0  0  0
    3.7320    5.1900    0.0000 H   0  0  0  0  0  0  0  0  0  0  0  0
    7.7331    6.1200    0.0000 H   0  0  0  0  0  0  0  0  0  0  0  0
    9.1360   -6.3100    0.0000 H   0  0  0  0  0  0  0  0  0  0  0  0
    5.4641    6.8100    0.0000 H   0  0  0  0  0  0  0  0  0  0  0  0
    6.0010   -6.1200    0.0000 H   0  0  0  0  0  0  0  0  0  0  0  0
    2.0000   -5.1900    0.0000 H   0  0  0  0  0  0  0  0  0  0  0  0
    3.7320   -6.8100    0.0000 H   0  0  0  0  0  0  0  0  0  0  0  0
  1 20  1  0  0  0  0
  1 21  1  0  0  0  0
  2 21  1  0  0  0  0
  2 24  1  0  0  0  0
 20  3  1  6  0  0  0
  3 50  1  0  0  0  0
 21  4  1  6  0  0  0
  4 26  1  0  0  0  0
 22  5  1  6  0  0  0
  5 27  1  0  0  0  0
 23  6  1  1  0  0  0
  6 53  1  0  0  0  0
  7 25  1  0  0  0  0
  7 30  1  0  0  0  0
  8 26  2  0  0  0  0
  9 27  2  0  0  0  0
 10 30  2  0  0  0  0
 11 36  1  0  0  0  0
 11 60  1  0  0  0  0
 12 37  1  0  0  0  0
 12 61  1  0  0  0  0
 13 38  1  0  0  0  0
 13 62  1  0  0  0  0
 14 39  1  0  0  0  0
 14 63  1  0  0  0  0
 15 40  1  0  0  0  0
 15 64  1  0  0  0  0
 16 41  1  0  0  0  0
 16 65  1  0  0  0  0
 17 44  1  0  0  0  0
 17 66  1  0  0  0  0
 18 45  1  0  0  0  0
 18 67  1  0  0  0  0
 19 46  1  0  0  0  0
 19 68  1  0  0  0  0
 20 21  1  0  0  0  0
 20 22  1  0  0  0  0
 22 23  1  0  0  0  0
 22 47  1  0  0  0  0
 23 24  1  0  0  0  0
 23 48  1  0  0  0  0
 24 25  1  6  0  0  0
 24 49  1  0  0  0  0
 25 51  1  0  0  0  0
 25 52  1  0  0  0  0
 26 28  1  0  0  0  0
 27 29  1  0  0  0  0
 28 31  2  0  0  0  0
 28 32  1  0  0  0  0
 29 33  2  0  0  0  0
 29 34  1  0  0  0  0
 30 35  1  0  0  0  0
 31 37  1  0  0  0  0
 31 54  1  0  0  0  0
 32 36  2  0  0  0  0
 32 55  1  0  0  0  0
 33 39  1  0  0  0  0
 33 56  1  0  0  0  0
 34 38  2  0  0  0  0
 34 57  1  0  0  0  0
 35 42  2  0  0  0  0
 35 43  1  0  0  0  0
 36 40  1  0  0  0  0
 37 40  2  0  0  0  0
 38 41  1  0  0  0  0
 39 41  2  0  0  0  0
 42 45  1  0  0  0  0
 42 58  1  0  0  0  0
 43 44  2  0  0  0  0
 43 59  1  0  0  0  0
 44 46  1  0  0  0  0
 45 46  2  0  0  0  0
M  END
> <PUBCHEM_COMPOUND_CID>
129705226

> <PUBCHEM_COMPOUND_CANONICALIZED>
1

> <PUBCHEM_CACTVS_COMPLEXITY>
1120

> <PUBCHEM_CACTVS_HBOND_ACCEPTOR>
19

> <PUBCHEM_CACTVS_HBOND_DONOR>
11

> <PUBCHEM_CACTVS_ROTATABLE_BOND>
10

> <PUBCHEM_CACTVS_SUBSKEYS>
AAADceB4PgAAAAAAAAAAAAAAEgAAAAAAAAA0YMEABIAAAAABUAAAGgAACAAADBSgmAIwDoAABgCIAiDSCAACAAAkIAAAiAEGiMgZNzKCNRqicQElwBUPuYfK7DzOIAABCAAAQABAAAIQAACAAAAAAAAAAA==

> <PUBCHEM_IUPAC_OPENEYE_NAME>
[(1S,3R,4R,5S,6R)-4,6-dihydroxy-1,5-bis[(3,4,5-trihydroxybenzoyl)oxy]-2,7-dioxabicyclo[4.1.0]heptan-3-yl]methyl 3,4,5-trihydroxybenzoate

> <PUBCHEM_IUPAC_CAS_NAME>
3,4,5-trihydroxybenzoic acid [(1S,3R,4R,5S,6R)-4,6-dihydroxy-1,5-bis[oxo-(3,4,5-trihydroxyphenyl)methoxy]-2,7-dioxabicyclo[4.1.0]heptan-3-yl]methyl ester

> <PUBCHEM_IUPAC_NAME_MARKUP>
[(1<I>S</I>,3<I>R</I>,4<I>R</I>,5<I>S</I>,6<I>R</I>)-4,6-dihydroxy-1,5-bis[(3,4,5-trihydroxybenzoyl)oxy]-2,7-dioxabicyclo[4.1.0]heptan-3-yl]methyl 3,4,5-trihydroxybenzoate

> <PUBCHEM_IUPAC_NAME>
[(1S,3R,4R,5S,6R)-4,6-dihydroxy-1,5-bis[(3,4,5-trihydroxybenzoyl)oxy]-2,7-dioxabicyclo[4.1.0]heptan-3-yl]methyl 3,4,5-trihydroxybenzoate

> <PUBCHEM_IUPAC_SYSTEMATIC_NAME>
[(1S,3R,4R,5S,6R)-4,6-bis(oxidanyl)-1,5-bis[[3,4,5-tris(oxidanyl)phenyl]carbonyloxy]-2,7-dioxabicyclo[4.1.0]heptan-3-yl]methyl 3,4,5-tris(oxidanyl)benzoate

> <PUBCHEM_IUPAC_TRADITIONAL_NAME>
3,4,5-trihydroxybenzoic acid [(1S,3R,4R,5S,6R)-1,5-digalloyloxy-4,6-dihydroxy-2,7-dioxabicyclo[4.1.0]heptan-3-yl]methyl ester

> <PUBCHEM_IUPAC_INCHI>
InChI=1S/C27H22O19/c28-11-1-8(2-12(29)18(11)34)23(38)42-7-17-21(37)22(43-24(39)9-3-13(30)19(35)14(31)4-9)26(41)27(44-17,46-26)45-25(40)10-5-15(32)20(36)16(33)6-10/h1-6,17,21-22,28-37,41H,7H2/t17-,21-,22+,26-,27-/m1/s1

> <PUBCHEM_IUPAC_INCHIKEY>
IFTMNPFJHCXWGG-KFODTCOTSA-N

> <PUBCHEM_XLOGP3_AA>
-0.2

> <PUBCHEM_EXACT_MASS>
650.075528

> <PUBCHEM_MOLECULAR_FORMULA>
C27H22O19

> <PUBCHEM_MOLECULAR_WEIGHT>
650.5

> <PUBCHEM_OPENEYE_CAN_SMILES>
C1=C(C=C(C(=C1O)O)O)C(=O)OCC2C(C(C3(C(O2)(O3)OC(=O)C4=CC(=C(C(=C4)O)O)O)O)OC(=O)C5=CC(=C(C(=C5)O)O)O)O

> <PUBCHEM_OPENEYE_ISO_SMILES>
C1=C(C=C(C(=C1O)O)O)C(=O)OC[C@@H]2[C@H]([C@@H]([C@@]3([C@](O2)(O3)OC(=O)C4=CC(=C(C(=C4)O)O)O)O)OC(=O)C5=CC(=C(C(=C5)O)O)O)O

> <PUBCHEM_CACTVS_TPSA>
323

> <PUBCHEM_MONOISOTOPIC_WEIGHT>
650.075528

> <PUBCHEM_TOTAL_CHARGE>
0

> <PUBCHEM_HEAVY_ATOM_COUNT>
46

> <PUBCHEM_ATOM_DEF_STEREO_COUNT>
5

> <PUBCHEM_ATOM_UDEF_STEREO_COUNT>
0

> <PUBCHEM_BOND_DEF_STEREO_COUNT>
0

> <PUBCHEM_BOND_UDEF_STEREO_COUNT>
0

> <PUBCHEM_ISOTOPIC_ATOM_COUNT>
0

> <PUBCHEM_COMPONENT_COUNT>
1

> <PUBCHEM_CACTVS_TAUTO_COUNT>
-1

> <PUBCHEM_COORDINATE_TYPE>
1
5
255

> <PUBCHEM_BONDANNOTATIONS>
24  25  6
28  31  8
28  32  8
29  33  8
29  34  8
20  3  6
31  37  8
32  36  8
33  39  8
34  38  8
35  42  8
35  43  8
36  40  8
37  40  8
38  41  8
39  41  8
21  4  6
42  45  8
43  44  8
44  46  8
45  46  8
22  5  6
23  6  5

$$$$
129693153
  -OEChem-04052116542D

 71 74  0     1  0  0  0  0  0999 V2000
    8.5991   -0.0670    0.0000 O   0  0  0  0  0  0  0  0  0  0  0  0
    6.0010    1.4330    0.0000 O   0  0  0  0  0  0  0  0  0  0  0  0
    7.2331   -1.4330    0.0000 O   0  0  0  0  0  0  0  0  0  0  0  0
    7.7331    2.4330    0.0000 O   0  0  0  0  0  0  0  0  0  0  0  0
    6.0010   -0.5670    0.0000 O   0  0  0  0  0  0  0  0  0  0  0  0
   10.3312    0.9330    0.0000 O   0  0  0  0  0  0  0  0  0  0  0  0
    6.8671    2.9330    0.0000 O   0  0  0  0  0  0  0  0  0  0  0  0
    8.0991   -2.9330    0.0000 O   0  0  0  0  0  0  0  0  0  0  0  0
   11.1972    2.4330    0.0000 O   0  0  0  0  0  0  0  0  0  0  0  0
    2.5369    2.4330    0.0000 O   0  0  0  0  0  0  0  0  0  0  0  0
    4.2690    5.4330    0.0000 O   0  0  0  0  0  0  0  0  0  0  0  0
    5.5010   -5.4330    0.0000 O   0  0  0  0  0  0  0  0  0  0  0  0
    3.7690   -2.4330    0.0000 O   0  0  0  0  0  0  0  0  0  0  0  0
    2.5369    4.4330    0.0000 O   0  0  0  0  0  0  0  0  0  0  0  0
    3.7690   -4.4331    0.0000 O   0  0  0  0  0  0  0  0  0  0  0  0
   14.6613    1.4330    0.0000 O   0  0  0  0  0  0  0  0  0  0  0  0
   12.9292   -1.5670    0.0000 O   0  0  0  0  0  0  0  0  0  0  0  0
   14.6613   -0.5670    0.0000 O   0  0  0  0  0  0  0  0  0  0  0  0
    8.5991   -1.0670    0.0000 N   0  0  0  0  0  0  0  0  0  0  0  0
    6.8671    0.9330    0.0000 C   0  0  1  0  0  0  0  0  0  0  0  0
    7.7331    1.4330    0.0000 C   0  0  1  0  0  0  0  0  0  0  0  0
    6.8671   -0.0670    0.0000 C   0  0  2  0  0  0  0  0  0  0  0  0
    8.5991    0.9330    0.0000 C   0  0  1  0  0  0  0  0  0  0  0  0
    7.7331   -0.5670    0.0000 C   0  0  1  0  0  0  0  0  0  0  0  0
    9.4651    1.4330    0.0000 C   0  0  0  0  0  0  0  0  0  0  0  0
    6.0010    2.4330    0.0000 C   0  0  0  0  0  0  0  0  0  0  0  0
    7.2331   -2.4330    0.0000 C   0  0  0  0  0  0  0  0  0  0  0  0
    5.1350    2.9330    0.0000 C   0  0  0  0  0  0  0  0  0  0  0  0
   11.1972    1.4330    0.0000 C   0  0  0  0  0  0  0  0  0  0  0  0
    6.3672   -2.9331    0.0000 C   0  0  0  0  0  0  0  0  0  0  0  0
   12.0632    0.9330    0.0000 C   0  0  0  0  0  0  0  0  0  0  0  0
    5.1350    3.9330    0.0000 C   0  0  0  0  0  0  0  0  0  0  0  0
    4.2690    2.4330    0.0000 C   0  0  0  0  0  0  0  0  0  0  0  0
    5.5011   -2.4330    0.0000 C   0  0  0  0  0  0  0  0  0  0  0  0
    6.3671   -3.9330    0.0000 C   0  0  0  0  0  0  0  0  0  0  0  0
    3.4030    2.9330    0.0000 C   0  0  0  0  0  0  0  0  0  0  0  0
    4.2690    4.4330    0.0000 C   0  0  0  0  0  0  0  0  0  0  0  0
    5.5011   -4.4331    0.0000 C   0  0  0  0  0  0  0  0  0  0  0  0
    4.6350   -2.9330    0.0000 C   0  0  0  0  0  0  0  0  0  0  0  0
   12.0632   -0.0670    0.0000 C   0  0  0  0  0  0  0  0  0  0  0  0
   12.9292    1.4330    0.0000 C   0  0  0  0  0  0  0  0  0  0  0  0
    3.4030    3.9330    0.0000 C   0  0  0  0  0  0  0  0  0  0  0  0
    4.6351   -3.9331    0.0000 C   0  0  0  0  0  0  0  0  0  0  0  0
   13.7953    0.9330    0.0000 C   0  0  0  0  0  0  0  0  0  0  0  0
   12.9292   -0.5670    0.0000 C   0  0  0  0  0  0  0  0  0  0  0  0
   13.7953   -0.0670    0.0000 C   0  0  0  0  0  0  0  0  0  0  0  0
    6.8671    1.5530    0.0000 H   0  0  0  0  0  0  0  0  0  0  0  0
    8.2700    1.7430    0.0000 H   0  0  0  0  0  0  0  0  0  0  0  0
    6.3301    0.2430    0.0000 H   0  0  0  0  0  0  0  0  0  0  0  0
    9.1360    0.6230    0.0000 H   0  0  0  0  0  0  0  0  0  0  0  0
    9.8637    1.9080    0.0000 H   0  0  0  0  0  0  0  0  0  0  0  0
    9.0666    1.9080    0.0000 H   0  0  0  0  0  0  0  0  0  0  0  0
    9.1360   -0.7570    0.0000 H   0  0  0  0  0  0  0  0  0  0  0  0
    8.5991   -1.6870    0.0000 H   0  0  0  0  0  0  0  0  0  0  0  0
    8.2700    2.7430    0.0000 H   0  0  0  0  0  0  0  0  0  0  0  0
    5.4641   -0.2570    0.0000 H   0  0  0  0  0  0  0  0  0  0  0  0
    5.6720    4.2430    0.0000 H   0  0  0  0  0  0  0  0  0  0  0  0
    4.2690    1.8130    0.0000 H   0  0  0  0  0  0  0  0  0  0  0  0
    5.5010   -1.8130    0.0000 H   0  0  0  0  0  0  0  0  0  0  0  0
    6.9040   -4.2430    0.0000 H   0  0  0  0  0  0  0  0  0  0  0  0
   11.5263   -0.3770    0.0000 H   0  0  0  0  0  0  0  0  0  0  0  0
   12.9292    2.0530    0.0000 H   0  0  0  0  0  0  0  0  0  0  0  0
    2.0000    2.7430    0.0000 H   0  0  0  0  0  0  0  0  0  0  0  0
    4.8059    5.7430    0.0000 H   0  0  0  0  0  0  0  0  0  0  0  0
    6.0380   -5.7430    0.0000 H   0  0  0  0  0  0  0  0  0  0  0  0
    3.2320   -2.7430    0.0000 H   0  0  0  0  0  0  0  0  0  0  0  0
    2.5369    5.0530    0.0000 H   0  0  0  0  0  0  0  0  0  0  0  0
    3.7690   -5.0531    0.0000 H   0  0  0  0  0  0  0  0  0  0  0  0
   14.6613    2.0530    0.0000 H   0  0  0  0  0  0  0  0  0  0  0  0
   13.4662   -1.8770    0.0000 H   0  0  0  0  0  0  0  0  0  0  0  0
   15.1982   -0.2570    0.0000 H   0  0  0  0  0  0  0  0  0  0  0  0
  1 23  1  0  0  0  0
  1 24  1  0  0  0  0
 20  2  1  1  0  0  0
  2 26  1  0  0  0  0
  3 24  1  0  0  0  0
  3 27  1  0  0  0  0
 21  4  1  6  0  0  0
  4 55  1  0  0  0  0
 22  5  1  6  0  0  0
  5 56  1  0  0  0  0
  6 25  1  0  0  0  0
  6 29  1  0  0  0  0
  7 26  2  0  0  0  0
  8 27  2  0  0  0  0
  9 29  2  0  0  0  0
 10 36  1  0  0  0  0
 10 63  1  0  0  0  0
 11 37  1  0  0  0  0
 11 64  1  0  0  0  0
 12 38  1  0  0  0  0
 12 65  1  0  0  0  0
 13 39  1  0  0  0  0
 13 66  1  0  0  0  0
 14 42  1  0  0  0  0
 14 67  1  0  0  0  0
 15 43  1  0  0  0  0
 15 68  1  0  0  0  0
 16 44  1  0  0  0  0
 16 69  1  0  0  0  0
 17 45  1  0  0  0  0
 17 70  1  0  0  0  0
 18 46  1  0  0  0  0
 18 71  1  0  0  0  0
 24 19  1  1  0  0  0
 19 53  1  0  0  0  0
 19 54  1  0  0  0  0
 20 21  1  0  0  0  0
 20 22  1  0  0  0  0
 20 47  1  0  0  0  0
 21 23  1  0  0  0  0
 21 48  1  0  0  0  0
 22 24  1  0  0  0  0
 22 49  1  0  0  0  0
 23 25  1  1  0  0  0
 23 50  1  0  0  0  0
 25 51  1  0  0  0  0
 25 52  1  0  0  0  0
 26 28  1  0  0  0  0
 27 30  1  0  0  0  0
 28 32  2  0  0  0  0
 28 33  1  0  0  0  0
 29 31  1  0  0  0  0
 30 34  2  0  0  0  0
 30 35  1  0  0  0  0
 31 40  2  0  0  0  0
 31 41  1  0  0  0  0
 32 37  1  0  0  0  0
 32 57  1  0  0  0  0
 33 36  2  0  0  0  0
 33 58  1  0  0  0  0
 34 39  1  0  0  0  0
 34 59  1  0  0  0  0
 35 38  2  0  0  0  0
 35 60  1  0  0  0  0
 36 42  1  0  0  0  0
 37 42  2  0  0  0  0
 38 43  1  0  0  0  0
 39 43  2  0  0  0  0
 40 45  1  0  0  0  0
 40 61  1  0  0  0  0
 41 44  2  0  0  0  0
 41 62  1  0  0  0  0
 44 46  1  0  0  0  0
 45 46  2  0  0  0  0
M  END
> <PUBCHEM_COMPOUND_CID>
129693153

> <PUBCHEM_COMPOUND_CANONICALIZED>
1

> <PUBCHEM_CACTVS_COMPLEXITY>
1060

> <PUBCHEM_CACTVS_HBOND_ACCEPTOR>
19

> <PUBCHEM_CACTVS_HBOND_DONOR>
12

> <PUBCHEM_CACTVS_ROTATABLE_BOND>
10

> <PUBCHEM_CACTVS_SUBSKEYS>
AAADceB6PgAAAAAAAAAAAAAAAAAAAAAAAAA0YMEAAAAAAAABUAAAHgAQCAAADBShmAIwDoBABgCIAiDSCAACAAAkIAAAiAEGiMkbNzKCtRqqcQEn0BUPuYf6/DzOIAABCAAAQABAAAIQAACAAAAAAAAAAA==

> <PUBCHEM_IUPAC_OPENEYE_NAME>
[(2R,3R,4S,5R,6S)-6-amino-3,5-dihydroxy-4,6-bis[(3,4,5-trihydroxybenzoyl)oxy]tetrahydropyran-2-yl]methyl 3,4,5-trihydroxybenzoate

> <PUBCHEM_IUPAC_CAS_NAME>
3,4,5-trihydroxybenzoic acid [(2R,3R,4S,5R,6S)-6-amino-3,5-dihydroxy-4,6-bis[oxo-(3,4,5-trihydroxyphenyl)methoxy]-2-oxanyl]methyl ester

> <PUBCHEM_IUPAC_NAME_MARKUP>
[(2<I>R</I>,3<I>R</I>,4<I>S</I>,5<I>R</I>,6<I>S</I>)-6-amino-3,5-dihydroxy-4,6-bis[(3,4,5-trihydroxybenzoyl)oxy]oxan-2-yl]methyl 3,4,5-trihydroxybenzoate

> <PUBCHEM_IUPAC_NAME>
[(2R,3R,4S,5R,6S)-6-amino-3,5-dihydroxy-4,6-bis[(3,4,5-trihydroxybenzoyl)oxy]oxan-2-yl]methyl 3,4,5-trihydroxybenzoate

> <PUBCHEM_IUPAC_SYSTEMATIC_NAME>
[(2R,3R,4S,5R,6S)-6-azanyl-3,5-bis(oxidanyl)-4,6-bis[[3,4,5-tris(oxidanyl)phenyl]carbonyloxy]oxan-2-yl]methyl 3,4,5-tris(oxidanyl)benzoate

> <PUBCHEM_IUPAC_TRADITIONAL_NAME>
3,4,5-trihydroxybenzoic acid [(2R,3R,4S,5R,6S)-6-amino-4,6-digalloyloxy-3,5-dihydroxy-tetrahydropyran-2-yl]methyl ester

> <PUBCHEM_IUPAC_INCHI>
InChI=1S/C27H25NO18/c28-27(46-26(42)10-5-15(33)20(37)16(34)6-10)23(39)22(44-25(41)9-3-13(31)19(36)14(32)4-9)21(38)17(45-27)7-43-24(40)8-1-11(29)18(35)12(30)2-8/h1-6,17,21-23,29-39H,7,28H2/t17-,21-,22+,23-,27+/m1/s1

> <PUBCHEM_IUPAC_INCHIKEY>
PPAUBYHXMDHMJE-VFTFQOQOSA-N

> <PUBCHEM_XLOGP3_AA>
-0.1

> <PUBCHEM_EXACT_MASS>
651.107163

> <PUBCHEM_MOLECULAR_FORMULA>
C27H25NO18

> <PUBCHEM_MOLECULAR_WEIGHT>
651.5

> <PUBCHEM_OPENEYE_CAN_SMILES>
C1=C(C=C(C(=C1O)O)O)C(=O)OCC2C(C(C(C(O2)(N)OC(=O)C3=CC(=C(C(=C3)O)O)O)O)OC(=O)C4=CC(=C(C(=C4)O)O)O)O

> <PUBCHEM_OPENEYE_ISO_SMILES>
C1=C(C=C(C(=C1O)O)O)C(=O)OC[C@@H]2[C@H]([C@@H]([C@H]([C@@](O2)(N)OC(=O)C3=CC(=C(C(=C3)O)O)O)O)OC(=O)C4=CC(=C(C(=C4)O)O)O)O

> <PUBCHEM_CACTVS_TPSA>
337

> <PUBCHEM_MONOISOTOPIC_WEIGHT>
651.107163

> <PUBCHEM_TOTAL_CHARGE>
0

> <PUBCHEM_HEAVY_ATOM_COUNT>
46

> <PUBCHEM_ATOM_DEF_STEREO_COUNT>
5

> <PUBCHEM_ATOM_UDEF_STEREO_COUNT>
0

> <PUBCHEM_BOND_DEF_STEREO_COUNT>
0

> <PUBCHEM_BOND_UDEF_STEREO_COUNT>
0

> <PUBCHEM_ISOTOPIC_ATOM_COUNT>
0

> <PUBCHEM_COMPONENT_COUNT>
1

> <PUBCHEM_CACTVS_TAUTO_COUNT>
-1

> <PUBCHEM_COORDINATE_TYPE>
1
5
255

> <PUBCHEM_BONDANNOTATIONS>
24  19  5
20  2  5
23  25  5
28  32  8
28  33  8
30  34  8
30  35  8
31  40  8
31  41  8
32  37  8
33  36  8
34  39  8
35  38  8
36  42  8
37  42  8
38  43  8
39  43  8
21  4  6
40  45  8
41  44  8
44  46  8
45  46  8
22  5  6

$$$$
129680194
  -OEChem-04052116542D

 73 76  0     1  0  0  0  0  0999 V2000
    8.5991    0.2115    0.0000 O   0  0  0  0  0  0  0  0  0  0  0  0
    6.0010    1.7115    0.0000 O   0  0  0  0  0  0  0  0  0  0  0  0
    7.2331   -1.1545    0.0000 O   0  0  0  0  0  0  0  0  0  0  0  0
    6.0010   -0.2885    0.0000 O   0  0  0  0  0  0  0  0  0  0  0  0
    7.7331    2.7115    0.0000 O   0  0  0  0  0  0  0  0  0  0  0  0
   10.3312    1.2115    0.0000 O   0  0  0  0  0  0  0  0  0  0  0  0
    9.2331   -1.1545    0.0000 O   0  0  0  0  0  0  0  0  0  0  0  0
    6.8671    3.2115    0.0000 O   0  0  0  0  0  0  0  0  0  0  0  0
    8.7331   -2.0205    0.0000 O   0  0  0  0  0  0  0  0  0  0  0  0
   11.1972    2.7115    0.0000 O   0  0  0  0  0  0  0  0  0  0  0  0
    2.5369    2.7115    0.0000 O   0  0  0  0  0  0  0  0  0  0  0  0
    4.2690    5.7115    0.0000 O   0  0  0  0  0  0  0  0  0  0  0  0
    7.7331   -5.4846    0.0000 O   0  0  0  0  0  0  0  0  0  0  0  0
    4.7331   -3.7526    0.0000 O   0  0  0  0  0  0  0  0  0  0  0  0
    2.5369    4.7115    0.0000 O   0  0  0  0  0  0  0  0  0  0  0  0
    5.7331   -5.4846    0.0000 O   0  0  0  0  0  0  0  0  0  0  0  0
   14.6613    1.7115    0.0000 O   0  0  0  0  0  0  0  0  0  0  0  0
   12.9292   -1.2885    0.0000 O   0  0  0  0  0  0  0  0  0  0  0  0
   14.6613   -0.2885    0.0000 O   0  0  0  0  0  0  0  0  0  0  0  0
    6.8671    1.2115    0.0000 C   0  0  2  0  0  0  0  0  0  0  0  0
    6.8671    0.2115    0.0000 C   0  0  2  0  0  0  0  0  0  0  0  0
    7.7331   -0.2885    0.0000 C   0  0  1  0  0  0  0  0  0  0  0  0
    7.7331    1.7115    0.0000 C   0  0  1  0  0  0  0  0  0  0  0  0
    8.5991    1.2115    0.0000 C   0  0  1  0  0  0  0  0  0  0  0  0
    8.2331   -1.1545    0.0000 C   0  0  0  0  0  0  0  0  0  0  0  0
    9.4651    1.7115    0.0000 C   0  0  0  0  0  0  0  0  0  0  0  0
    6.0010    2.7115    0.0000 C   0  0  0  0  0  0  0  0  0  0  0  0
    7.7331   -2.0205    0.0000 C   0  0  0  0  0  0  0  0  0  0  0  0
    5.1350    3.2115    0.0000 C   0  0  0  0  0  0  0  0  0  0  0  0
    7.2331   -2.8865    0.0000 C   0  0  0  0  0  0  0  0  0  0  0  0
   11.1972    1.7115    0.0000 C   0  0  0  0  0  0  0  0  0  0  0  0
   12.0632    1.2115    0.0000 C   0  0  0  0  0  0  0  0  0  0  0  0
    5.1350    4.2115    0.0000 C   0  0  0  0  0  0  0  0  0  0  0  0
    4.2690    2.7115    0.0000 C   0  0  0  0  0  0  0  0  0  0  0  0
    6.2331   -2.8865    0.0000 C   0  0  0  0  0  0  0  0  0  0  0  0
    7.7331   -3.7526    0.0000 C   0  0  0  0  0  0  0  0  0  0  0  0
    3.4030    3.2115    0.0000 C   0  0  0  0  0  0  0  0  0  0  0  0
    4.2690    4.7115    0.0000 C   0  0  0  0  0  0  0  0  0  0  0  0
    7.2331   -4.6186    0.0000 C   0  0  0  0  0  0  0  0  0  0  0  0
    5.7331   -3.7526    0.0000 C   0  0  0  0  0  0  0  0  0  0  0  0
   12.0632    0.2115    0.0000 C   0  0  0  0  0  0  0  0  0  0  0  0
   12.9292    1.7115    0.0000 C   0  0  0  0  0  0  0  0  0  0  0  0
    3.4030    4.2115    0.0000 C   0  0  0  0  0  0  0  0  0  0  0  0
    6.2331   -4.6186    0.0000 C   0  0  0  0  0  0  0  0  0  0  0  0
   13.7953    1.2115    0.0000 C   0  0  0  0  0  0  0  0  0  0  0  0
   12.9292   -0.2885    0.0000 C   0  0  0  0  0  0  0  0  0  0  0  0
   13.7953    0.2115    0.0000 C   0  0  0  0  0  0  0  0  0  0  0  0
    6.8671    1.8315    0.0000 H   0  0  0  0  0  0  0  0  0  0  0  0
    6.3301    0.5215    0.0000 H   0  0  0  0  0  0  0  0  0  0  0  0
    8.2700    2.0215    0.0000 H   0  0  0  0  0  0  0  0  0  0  0  0
    9.1360    0.9015    0.0000 H   0  0  0  0  0  0  0  0  0  0  0  0
    7.6505   -1.3665    0.0000 H   0  0  0  0  0  0  0  0  0  0  0  0
    8.3408   -1.7651    0.0000 H   0  0  0  0  0  0  0  0  0  0  0  0
    9.8637    2.1865    0.0000 H   0  0  0  0  0  0  0  0  0  0  0  0
    9.0666    2.1865    0.0000 H   0  0  0  0  0  0  0  0  0  0  0  0
    5.4641    0.0215    0.0000 H   0  0  0  0  0  0  0  0  0  0  0  0
    8.2700    3.0215    0.0000 H   0  0  0  0  0  0  0  0  0  0  0  0
    9.5431   -1.6914    0.0000 H   0  0  0  0  0  0  0  0  0  0  0  0
    5.6720    4.5215    0.0000 H   0  0  0  0  0  0  0  0  0  0  0  0
    4.2690    2.0915    0.0000 H   0  0  0  0  0  0  0  0  0  0  0  0
    5.9231   -2.3496    0.0000 H   0  0  0  0  0  0  0  0  0  0  0  0
    8.3531   -3.7526    0.0000 H   0  0  0  0  0  0  0  0  0  0  0  0
   11.5263   -0.0985    0.0000 H   0  0  0  0  0  0  0  0  0  0  0  0
   12.9292    2.3315    0.0000 H   0  0  0  0  0  0  0  0  0  0  0  0
    2.0000    3.0215    0.0000 H   0  0  0  0  0  0  0  0  0  0  0  0
    4.8059    6.0215    0.0000 H   0  0  0  0  0  0  0  0  0  0  0  0
    8.3531   -5.4846    0.0000 H   0  0  0  0  0  0  0  0  0  0  0  0
    4.4231   -4.2895    0.0000 H   0  0  0  0  0  0  0  0  0  0  0  0
    2.5369    5.3315    0.0000 H   0  0  0  0  0  0  0  0  0  0  0  0
    6.0431   -6.0215    0.0000 H   0  0  0  0  0  0  0  0  0  0  0  0
   14.6613    2.3315    0.0000 H   0  0  0  0  0  0  0  0  0  0  0  0
   13.4662   -1.5985    0.0000 H   0  0  0  0  0  0  0  0  0  0  0  0
   15.1982    0.0215    0.0000 H   0  0  0  0  0  0  0  0  0  0  0  0
  1 22  1  0  0  0  0
  1 24  1  0  0  0  0
 20  2  1  1  0  0  0
  2 27  1  0  0  0  0
 22  3  1  1  0  0  0
  3 28  1  0  0  0  0
 21  4  1  6  0  0  0
  4 56  1  0  0  0  0
 23  5  1  6  0  0  0
  5 57  1  0  0  0  0
  6 26  1  0  0  0  0
  6 31  1  0  0  0  0
  7 25  1  0  0  0  0
  7 58  1  0  0  0  0
  8 27  2  0  0  0  0
  9 28  2  0  0  0  0
 10 31  2  0  0  0  0
 11 37  1  0  0  0  0
 11 65  1  0  0  0  0
 12 38  1  0  0  0  0
 12 66  1  0  0  0  0
 13 39  1  0  0  0  0
 13 67  1  0  0  0  0
 14 40  1  0  0  0  0
 14 68  1  0  0  0  0
 15 43  1  0  0  0  0
 15 69  1  0  0  0  0
 16 44  1  0  0  0  0
 16 70  1  0  0  0  0
 17 45  1  0  0  0  0
 17 71  1  0  0  0  0
 18 46  1  0  0  0  0
 18 72  1  0  0  0  0
 19 47  1  0  0  0  0
 19 73  1  0  0  0  0
 20 21  1  0  0  0  0
 20 23  1  0  0  0  0
 20 48  1  0  0  0  0
 21 22  1  0  0  0  0
 21 49  1  0  0  0  0
 22 25  1  0  0  0  0
 23 24  1  0  0  0  0
 23 50  1  0  0  0  0
 24 26  1  1  0  0  0
 24 51  1  0  0  0  0
 25 52  1  0  0  0  0
 25 53  1  0  0  0  0
 26 54  1  0  0  0  0
 26 55  1  0  0  0  0
 27 29  1  0  0  0  0
 28 30  1  0  0  0  0
 29 33  2  0  0  0  0
 29 34  1  0  0  0  0
 30 35  2  0  0  0  0
 30 36  1  0  0  0  0
 31 32  1  0  0  0  0
 32 41  2  0  0  0  0
 32 42  1  0  0  0  0
 33 38  1  0  0  0  0
 33 59  1  0  0  0  0
 34 37  2  0  0  0  0
 34 60  1  0  0  0  0
 35 40  1  0  0  0  0
 35 61  1  0  0  0  0
 36 39  2  0  0  0  0
 36 62  1  0  0  0  0
 37 43  1  0  0  0  0
 38 43  2  0  0  0  0
 39 44  1  0  0  0  0
 40 44  2  0  0  0  0
 41 46  1  0  0  0  0
 41 63  1  0  0  0  0
 42 45  2  0  0  0  0
 42 64  1  0  0  0  0
 45 47  1  0  0  0  0
 46 47  2  0  0  0  0
M  END
> <PUBCHEM_COMPOUND_CID>
129680194

> <PUBCHEM_COMPOUND_CANONICALIZED>
1

> <PUBCHEM_CACTVS_COMPLEXITY>
1070

> <PUBCHEM_CACTVS_HBOND_ACCEPTOR>
19

> <PUBCHEM_CACTVS_HBOND_DONOR>
12

> <PUBCHEM_CACTVS_ROTATABLE_BOND>
11

> <PUBCHEM_CACTVS_SUBSKEYS>
AAADceB4PgAAAAAAAAAAAAAAAAAAAAAAAAA0YMEAAAAAAAABUAAAGgAACAAADBSgmAIwDoAABgCIAiDSCAACAAAkIAAAiAEGiMgZNzKCNRqicQElwBUPuYfK7DzOIAABCAAAQABAAAIQAACAAAAAAAAAAA==

> <PUBCHEM_IUPAC_OPENEYE_NAME>
[(2R,3R,4S,5R,6S)-3,5-dihydroxy-6-(hydroxymethyl)-4,6-bis[(3,4,5-trihydroxybenzoyl)oxy]tetrahydropyran-2-yl]methyl 3,4,5-trihydroxybenzoate

> <PUBCHEM_IUPAC_CAS_NAME>
3,4,5-trihydroxybenzoic acid [(2R,3R,4S,5R,6S)-3,5-dihydroxy-6-(hydroxymethyl)-4,6-bis[oxo-(3,4,5-trihydroxyphenyl)methoxy]-2-oxanyl]methyl ester

> <PUBCHEM_IUPAC_NAME_MARKUP>
[(2<I>R</I>,3<I>R</I>,4<I>S</I>,5<I>R</I>,6<I>S</I>)-3,5-dihydroxy-6-(hydroxymethyl)-4,6-bis[(3,4,5-trihydroxybenzoyl)oxy]oxan-2-yl]methyl 3,4,5-trihydroxybenzoate

> <PUBCHEM_IUPAC_NAME>
[(2R,3R,4S,5R,6S)-3,5-dihydroxy-6-(hydroxymethyl)-4,6-bis[(3,4,5-trihydroxybenzoyl)oxy]oxan-2-yl]methyl 3,4,5-trihydroxybenzoate

> <PUBCHEM_IUPAC_SYSTEMATIC_NAME>
[(2R,3R,4S,5R,6S)-6-(hydroxymethyl)-3,5-bis(oxidanyl)-4,6-bis[[3,4,5-tris(oxidanyl)phenyl]carbonyloxy]oxan-2-yl]methyl 3,4,5-tris(oxidanyl)benzoate

> <PUBCHEM_IUPAC_TRADITIONAL_NAME>
3,4,5-trihydroxybenzoic acid [(2R,3R,4S,5R,6S)-4,6-digalloyloxy-3,5-dihydroxy-6-methylol-tetrahydropyran-2-yl]methyl ester

> <PUBCHEM_IUPAC_INCHI>
InChI=1S/C28H26O19/c29-8-28(47-27(43)11-5-16(34)21(38)17(35)6-11)24(40)23(45-26(42)10-3-14(32)20(37)15(33)4-10)22(39)18(46-28)7-44-25(41)9-1-12(30)19(36)13(31)2-9/h1-6,18,22-24,29-40H,7-8H2/t18-,22-,23+,24-,28+/m1/s1

> <PUBCHEM_IUPAC_INCHIKEY>
BMEVEPDLKNRUEL-ODFMKGCVSA-N

> <PUBCHEM_XLOGP3_AA>
0

> <PUBCHEM_EXACT_MASS>
666.106829

> <PUBCHEM_MOLECULAR_FORMULA>
C28H26O19

> <PUBCHEM_MOLECULAR_WEIGHT>
666.5

> <PUBCHEM_OPENEYE_CAN_SMILES>
C1=C(C=C(C(=C1O)O)O)C(=O)OCC2C(C(C(C(O2)(CO)OC(=O)C3=CC(=C(C(=C3)O)O)O)O)OC(=O)C4=CC(=C(C(=C4)O)O)O)O

> <PUBCHEM_OPENEYE_ISO_SMILES>
C1=C(C=C(C(=C1O)O)O)C(=O)OC[C@@H]2[C@H]([C@@H]([C@H]([C@](O2)(CO)OC(=O)C3=CC(=C(C(=C3)O)O)O)O)OC(=O)C4=CC(=C(C(=C4)O)O)O)O

> <PUBCHEM_CACTVS_TPSA>
331

> <PUBCHEM_MONOISOTOPIC_WEIGHT>
666.106829

> <PUBCHEM_TOTAL_CHARGE>
0

> <PUBCHEM_HEAVY_ATOM_COUNT>
47

> <PUBCHEM_ATOM_DEF_STEREO_COUNT>
5

> <PUBCHEM_ATOM_UDEF_STEREO_COUNT>
0

> <PUBCHEM_BOND_DEF_STEREO_COUNT>
0

> <PUBCHEM_BOND_UDEF_STEREO_COUNT>
0

> <PUBCHEM_ISOTOPIC_ATOM_COUNT>
0

> <PUBCHEM_COMPONENT_COUNT>
1

> <PUBCHEM_CACTVS_TAUTO_COUNT>
-1

> <PUBCHEM_COORDINATE_TYPE>
1
5
255

> <PUBCHEM_BONDANNOTATIONS>
20  2  5
24  26  5
29  33  8
29  34  8
22  3  5
30  35  8
30  36  8
32  41  8
32  42  8
33  38  8
34  37  8
35  40  8
36  39  8
37  43  8
38  43  8
39  44  8
21  4  6
40  44  8
41  46  8
42  45  8
45  47  8
46  47  8
23  5  6

$$$$
129679476
  -OEChem-04052116542D

 71 74  0     1  0  0  0  0  0999 V2000
    8.5991    0.2115    0.0000 O   0  0  0  0  0  0  0  0  0  0  0  0
    6.0010    1.7115    0.0000 O   0  0  0  0  0  0  0  0  0  0  0  0
    7.7331    2.7115    0.0000 O   0  0  0  0  0  0  0  0  0  0  0  0
    6.0010   -0.2885    0.0000 O   0  0  0  0  0  0  0  0  0  0  0  0
    7.2331   -1.1545    0.0000 O   0  0  0  0  0  0  0  0  0  0  0  0
   10.3312    1.2115    0.0000 O   0  0  0  0  0  0  0  0  0  0  0  0
    6.8671    3.2115    0.0000 O   0  0  0  0  0  0  0  0  0  0  0  0
    8.7331   -2.0205    0.0000 O   0  0  0  0  0  0  0  0  0  0  0  0
   11.1972    2.7115    0.0000 O   0  0  0  0  0  0  0  0  0  0  0  0
   10.2331   -1.1545    0.0000 O   0  0  0  0  0  0  0  0  0  0  0  0
    2.5369    2.7115    0.0000 O   0  0  0  0  0  0  0  0  0  0  0  0
    4.2690    5.7115    0.0000 O   0  0  0  0  0  0  0  0  0  0  0  0
    7.7331   -5.4846    0.0000 O   0  0  0  0  0  0  0  0  0  0  0  0
    4.7331   -3.7526    0.0000 O   0  0  0  0  0  0  0  0  0  0  0  0
    2.5369    4.7115    0.0000 O   0  0  0  0  0  0  0  0  0  0  0  0
    5.7331   -5.4846    0.0000 O   0  0  0  0  0  0  0  0  0  0  0  0
   14.6613    1.7115    0.0000 O   0  0  0  0  0  0  0  0  0  0  0  0
   12.9292   -1.2885    0.0000 O   0  0  0  0  0  0  0  0  0  0  0  0
   14.6613   -0.2885    0.0000 O   0  0  0  0  0  0  0  0  0  0  0  0
    8.2331   -1.1545    0.0000 N   0  0  0  0  0  0  0  0  0  0  0  0
    6.8671    1.2115    0.0000 C   0  0  1  0  0  0  0  0  0  0  0  0
    7.7331    1.7115    0.0000 C   0  0  1  0  0  0  0  0  0  0  0  0
    6.8671    0.2115    0.0000 C   0  0  2  0  0  0  0  0  0  0  0  0
    8.5991    1.2115    0.0000 C   0  0  1  0  0  0  0  0  0  0  0  0
    7.7331   -0.2885    0.0000 C   0  0  1  0  0  0  0  0  0  0  0  0
    9.4651    1.7115    0.0000 C   0  0  0  0  0  0  0  0  0  0  0  0
    6.0010    2.7115    0.0000 C   0  0  0  0  0  0  0  0  0  0  0  0
    7.7331   -2.0205    0.0000 C   0  0  0  0  0  0  0  0  0  0  0  0
    5.1350    3.2115    0.0000 C   0  0  0  0  0  0  0  0  0  0  0  0
   11.1972    1.7115    0.0000 C   0  0  0  0  0  0  0  0  0  0  0  0
    9.2331   -1.1545    0.0000 C   0  0  0  0  0  0  0  0  0  0  0  0
    7.2331   -2.8865    0.0000 C   0  0  0  0  0  0  0  0  0  0  0  0
   12.0632    1.2115    0.0000 C   0  0  0  0  0  0  0  0  0  0  0  0
    5.1350    4.2115    0.0000 C   0  0  0  0  0  0  0  0  0  0  0  0
    4.2690    2.7115    0.0000 C   0  0  0  0  0  0  0  0  0  0  0  0
    6.2331   -2.8865    0.0000 C   0  0  0  0  0  0  0  0  0  0  0  0
    7.7331   -3.7526    0.0000 C   0  0  0  0  0  0  0  0  0  0  0  0
    3.4030    3.2115    0.0000 C   0  0  0  0  0  0  0  0  0  0  0  0
    4.2690    4.7115    0.0000 C   0  0  0  0  0  0  0  0  0  0  0  0
   12.0632    0.2115    0.0000 C   0  0  0  0  0  0  0  0  0  0  0  0
   12.9292    1.7115    0.0000 C   0  0  0  0  0  0  0  0  0  0  0  0
    7.2331   -4.6186    0.0000 C   0  0  0  0  0  0  0  0  0  0  0  0
    5.7331   -3.7526    0.0000 C   0  0  0  0  0  0  0  0  0  0  0  0
    3.4030    4.2115    0.0000 C   0  0  0  0  0  0  0  0  0  0  0  0
    6.2331   -4.6186    0.0000 C   0  0  0  0  0  0  0  0  0  0  0  0
   13.7953    1.2115    0.0000 C   0  0  0  0  0  0  0  0  0  0  0  0
   12.9292   -0.2885    0.0000 C   0  0  0  0  0  0  0  0  0  0  0  0
   13.7953    0.2115    0.0000 C   0  0  0  0  0  0  0  0  0  0  0  0
    6.8671    1.8315    0.0000 H   0  0  0  0  0  0  0  0  0  0  0  0
    8.2700    2.0215    0.0000 H   0  0  0  0  0  0  0  0  0  0  0  0
    6.3301    0.5215    0.0000 H   0  0  0  0  0  0  0  0  0  0  0  0
    9.1360    0.9015    0.0000 H   0  0  0  0  0  0  0  0  0  0  0  0
    9.8637    2.1865    0.0000 H   0  0  0  0  0  0  0  0  0  0  0  0
    9.0666    2.1865    0.0000 H   0  0  0  0  0  0  0  0  0  0  0  0
    8.2700    3.0215    0.0000 H   0  0  0  0  0  0  0  0  0  0  0  0
    5.4641    0.0215    0.0000 H   0  0  0  0  0  0  0  0  0  0  0  0
    5.6720    4.5215    0.0000 H   0  0  0  0  0  0  0  0  0  0  0  0
    4.2690    2.0915    0.0000 H   0  0  0  0  0  0  0  0  0  0  0  0
    5.9231   -2.3496    0.0000 H   0  0  0  0  0  0  0  0  0  0  0  0
    8.3531   -3.7526    0.0000 H   0  0  0  0  0  0  0  0  0  0  0  0
   11.5263   -0.0985    0.0000 H   0  0  0  0  0  0  0  0  0  0  0  0
   12.9292    2.3315    0.0000 H   0  0  0  0  0  0  0  0  0  0  0  0
    2.0000    3.0215    0.0000 H   0  0  0  0  0  0  0  0  0  0  0  0
    4.8059    6.0215    0.0000 H   0  0  0  0  0  0  0  0  0  0  0  0
    8.3531   -5.4846    0.0000 H   0  0  0  0  0  0  0  0  0  0  0  0
    4.4231   -4.2895    0.0000 H   0  0  0  0  0  0  0  0  0  0  0  0
    2.5369    5.3315    0.0000 H   0  0  0  0  0  0  0  0  0  0  0  0
    6.0431   -6.0215    0.0000 H   0  0  0  0  0  0  0  0  0  0  0  0
   14.6613    2.3315    0.0000 H   0  0  0  0  0  0  0  0  0  0  0  0
   13.4662   -1.5985    0.0000 H   0  0  0  0  0  0  0  0  0  0  0  0
   15.1982    0.0215    0.0000 H   0  0  0  0  0  0  0  0  0  0  0  0
  1 24  1  0  0  0  0
  1 25  1  0  0  0  0
 21  2  1  1  0  0  0
  2 27  1  0  0  0  0
 22  3  1  6  0  0  0
  3 55  1  0  0  0  0
 23  4  1  6  0  0  0
  4 56  1  0  0  0  0
 25  5  1  6  0  0  0
  5 28  1  0  0  0  0
  6 26  1  0  0  0  0
  6 30  1  0  0  0  0
  7 27  2  0  0  0  0
  8 28  2  0  0  0  0
  9 30  2  0  0  0  0
 10 31  2  0  0  0  0
 11 38  1  0  0  0  0
 11 63  1  0  0  0  0
 12 39  1  0  0  0  0
 12 64  1  0  0  0  0
 13 42  1  0  0  0  0
 13 65  1  0  0  0  0
 14 43  1  0  0  0  0
 14 66  1  0  0  0  0
 15 44  1  0  0  0  0
 15 67  1  0  0  0  0
 16 45  1  0  0  0  0
 16 68  1  0  0  0  0
 17 46  1  0  0  0  0
 17 69  1  0  0  0  0
 18 47  1  0  0  0  0
 18 70  1  0  0  0  0
 19 48  1  0  0  0  0
 19 71  1  0  0  0  0
 20 25  1  0  0  0  0
 20 31  2  0  0  0  0
 21 22  1  0  0  0  0
 21 23  1  0  0  0  0
 21 49  1  0  0  0  0
 22 24  1  0  0  0  0
 22 50  1  0  0  0  0
 23 25  1  0  0  0  0
 23 51  1  0  0  0  0
 24 26  1  1  0  0  0
 24 52  1  0  0  0  0
 26 53  1  0  0  0  0
 26 54  1  0  0  0  0
 27 29  1  0  0  0  0
 28 32  1  0  0  0  0
 29 34  2  0  0  0  0
 29 35  1  0  0  0  0
 30 33  1  0  0  0  0
 32 36  2  0  0  0  0
 32 37  1  0  0  0  0
 33 40  2  0  0  0  0
 33 41  1  0  0  0  0
 34 39  1  0  0  0  0
 34 57  1  0  0  0  0
 35 38  2  0  0  0  0
 35 58  1  0  0  0  0
 36 43  1  0  0  0  0
 36 59  1  0  0  0  0
 37 42  2  0  0  0  0
 37 60  1  0  0  0  0
 38 44  1  0  0  0  0
 39 44  2  0  0  0  0
 40 47  1  0  0  0  0
 40 61  1  0  0  0  0
 41 46  2  0  0  0  0
 41 62  1  0  0  0  0
 42 45  1  0  0  0  0
 43 45  2  0  0  0  0
 46 48  1  0  0  0  0
 47 48  2  0  0  0  0
M  END
> <PUBCHEM_COMPOUND_CID>
129679476

> <PUBCHEM_COMPOUND_CANONICALIZED>
1

> <PUBCHEM_CACTVS_COMPLEXITY>
1180

> <PUBCHEM_CACTVS_HBOND_ACCEPTOR>
20

> <PUBCHEM_CACTVS_HBOND_DONOR>
11

> <PUBCHEM_CACTVS_ROTATABLE_BOND>
11

> <PUBCHEM_CACTVS_SUBSKEYS>
AAADceB6PgAAAAAAAAAAAAAAAAAAAAAAAAA0YMEAAAAAAAABUAAAHgAACAAADBShmAIwDoIABgCoAiDSHAACAAAkIAAAiAEGiMgbNzKCtRqqcQEnwBUPuYf6/DzOIAABCAAAQABAAAIQAACAAAAAAAAAAA==

> <PUBCHEM_IUPAC_OPENEYE_NAME>
[(2R,3R,4S,5R,6S)-3,5-dihydroxy-6-isocyanato-4,6-bis[(3,4,5-trihydroxybenzoyl)oxy]tetrahydropyran-2-yl]methyl 3,4,5-trihydroxybenzoate

> <PUBCHEM_IUPAC_CAS_NAME>
3,4,5-trihydroxybenzoic acid [(2R,3R,4S,5R,6S)-3,5-dihydroxy-6-isocyanato-4,6-bis[oxo-(3,4,5-trihydroxyphenyl)methoxy]-2-oxanyl]methyl ester

> <PUBCHEM_IUPAC_NAME_MARKUP>
[(2<I>R</I>,3<I>R</I>,4<I>S</I>,5<I>R</I>,6<I>S</I>)-3,5-dihydroxy-6-isocyanato-4,6-bis[(3,4,5-trihydroxybenzoyl)oxy]oxan-2-yl]methyl 3,4,5-trihydroxybenzoate

> <PUBCHEM_IUPAC_NAME>
[(2R,3R,4S,5R,6S)-3,5-dihydroxy-6-isocyanato-4,6-bis[(3,4,5-trihydroxybenzoyl)oxy]oxan-2-yl]methyl 3,4,5-trihydroxybenzoate

> <PUBCHEM_IUPAC_SYSTEMATIC_NAME>
[(2R,3R,4S,5R,6S)-6-isocyanato-3,5-bis(oxidanyl)-4,6-bis[[3,4,5-tris(oxidanyl)phenyl]carbonyloxy]oxan-2-yl]methyl 3,4,5-tris(oxidanyl)benzoate

> <PUBCHEM_IUPAC_TRADITIONAL_NAME>
3,4,5-trihydroxybenzoic acid [(2R,3R,4S,5R,6S)-4,6-digalloyloxy-3,5-dihydroxy-6-isocyanato-tetrahydropyran-2-yl]methyl ester

> <PUBCHEM_IUPAC_INCHI>
InChI=1S/C28H23NO19/c30-8-29-28(48-27(44)11-5-16(35)21(39)17(36)6-11)24(41)23(46-26(43)10-3-14(33)20(38)15(34)4-10)22(40)18(47-28)7-45-25(42)9-1-12(31)19(37)13(32)2-9/h1-6,18,22-24,31-41H,7H2/t18-,22-,23+,24-,28+/m1/s1

> <PUBCHEM_IUPAC_INCHIKEY>
SOQUGCWPDDUXSI-ODFMKGCVSA-N

> <PUBCHEM_XLOGP3_AA>
1

> <PUBCHEM_EXACT_MASS>
677.086428

> <PUBCHEM_MOLECULAR_FORMULA>
C28H23NO19

> <PUBCHEM_MOLECULAR_WEIGHT>
677.5

> <PUBCHEM_OPENEYE_CAN_SMILES>
C1=C(C=C(C(=C1O)O)O)C(=O)OCC2C(C(C(C(O2)(N=C=O)OC(=O)C3=CC(=C(C(=C3)O)O)O)O)OC(=O)C4=CC(=C(C(=C4)O)O)O)O

> <PUBCHEM_OPENEYE_ISO_SMILES>
C1=C(C=C(C(=C1O)O)O)C(=O)OC[C@@H]2[C@H]([C@@H]([C@H]([C@@](O2)(N=C=O)OC(=O)C3=CC(=C(C(=C3)O)O)O)O)OC(=O)C4=CC(=C(C(=C4)O)O)O)O

> <PUBCHEM_CACTVS_TPSA>
340

> <PUBCHEM_MONOISOTOPIC_WEIGHT>
677.086428

> <PUBCHEM_TOTAL_CHARGE>
0

> <PUBCHEM_HEAVY_ATOM_COUNT>
48

> <PUBCHEM_ATOM_DEF_STEREO_COUNT>
5

> <PUBCHEM_ATOM_UDEF_STEREO_COUNT>
0

> <PUBCHEM_BOND_DEF_STEREO_COUNT>
0

> <PUBCHEM_BOND_UDEF_STEREO_COUNT>
0

> <PUBCHEM_ISOTOPIC_ATOM_COUNT>
0

> <PUBCHEM_COMPONENT_COUNT>
1

> <PUBCHEM_CACTVS_TAUTO_COUNT>
-1

> <PUBCHEM_COORDINATE_TYPE>
1
5
255

> <PUBCHEM_BONDANNOTATIONS>
21  2  5
24  26  5
29  34  8
29  35  8
22  3  6
32  36  8
32  37  8
33  40  8
33  41  8
34  39  8
35  38  8
36  43  8
37  42  8
38  44  8
39  44  8
23  4  6
40  47  8
41  46  8
42  45  8
43  45  8
46  48  8
47  48  8
25  5  6

$$$$
129644277
  -OEChem-04052116542D

 70 72  0     1  0  0  0  0  0999 V2000
   12.6002    6.5600    0.0000 Fe  0  0  0  0  0  0  0  0  0  0  0  0
    4.8671    7.8100    0.0000 O   0  0  0  0  0  0  0  0  0  0  0  0
    4.8671    4.8100    0.0000 O   0  0  0  0  0  0  0  0  0  0  0  0
    3.1350    5.8100    0.0000 O   0  0  0  0  0  0  0  0  0  0  0  0
    6.5991    5.8100    0.0000 O   0  0  0  0  0  0  0  0  0  0  0  0
    6.5991    7.8100    0.0000 O   0  0  0  0  0  0  0  0  0  0  0  0
    3.1350    8.8100    0.0000 O   0  0  0  0  0  0  0  0  0  0  0  0
    3.1350    4.8100    0.0000 O   0  0  0  0  0  0  0  0  0  0  0  0
    5.7331    9.3100    0.0000 O   0  0  0  0  0  0  0  0  0  0  0  0
    1.4030    8.8100    0.0000 O   0  0  0  0  0  0  0  0  0  0  0  0
    5.7331    1.3100    0.0000 O   0  0  0  0  0  0  0  0  0  0  0  0
    2.2690    1.3100    0.0000 O   0  0  0  0  0  0  0  0  0  0  0  0
    4.0010    0.3100    0.0000 O   0  0  0  0  0  0  0  0  0  0  0  0
    8.3312   11.8100    0.0000 O   0  0  0  0  0  0  0  0  0  0  0  0
   10.0632    8.8100    0.0000 O   0  0  0  0  0  0  0  0  0  0  0  0
   10.0632   10.8100    0.0000 O   0  0  0  0  0  0  0  0  0  0  0  0
    0.5369   12.3100    0.0000 O   0  0  0  0  0  0  0  0  0  0  0  0
    4.0010   12.3100    0.0000 O   0  0  0  0  0  0  0  0  0  0  0  0
    2.2690   13.3100    0.0000 O   0  0  0  0  0  0  0  0  0  0  0  0
    4.8671    5.8100    0.0000 C   0  0  1  0  0  0  0  0  0  0  0  0
    4.0010    6.3100    0.0000 C   0  0  1  0  0  0  0  0  0  0  0  0
    4.0010    7.3100    0.0000 C   0  0  1  0  0  0  0  0  0  0  0  0
    5.7331    6.3100    0.0000 C   0  0  2  0  0  0  0  0  0  0  0  0
    5.7331    7.3100    0.0000 C   0  0  1  0  0  0  0  0  0  0  0  0
    3.1350    7.8100    0.0000 C   0  0  0  0  0  0  0  0  0  0  0  0
    4.0010    4.3100    0.0000 C   0  0  0  0  0  0  0  0  0  0  0  0
    6.5991    8.8100    0.0000 C   0  0  0  0  0  0  0  0  0  0  0  0
    4.0010    3.3100    0.0000 C   0  0  0  0  0  0  0  0  0  0  0  0
    2.2690    9.3100    0.0000 C   0  0  0  0  0  0  0  0  0  0  0  0
    7.4651    9.3100    0.0000 C   0  0  0  0  0  0  0  0  0  0  0  0
    2.2690   10.3100    0.0000 C   0  0  0  0  0  0  0  0  0  0  0  0
    3.1350    2.8100    0.0000 C   0  0  0  0  0  0  0  0  0  0  0  0
    4.8671    2.8100    0.0000 C   0  0  0  0  0  0  0  0  0  0  0  0
    8.3312    8.8100    0.0000 C   0  0  0  0  0  0  0  0  0  0  0  0
    7.4651   10.3100    0.0000 C   0  0  0  0  0  0  0  0  0  0  0  0
    4.8671    1.8100    0.0000 C   0  0  0  0  0  0  0  0  0  0  0  0
    3.1350    1.8100    0.0000 C   0  0  0  0  0  0  0  0  0  0  0  0
    3.1350   10.8100    0.0000 C   0  0  0  0  0  0  0  0  0  0  0  0
    1.4030   10.8100    0.0000 C   0  0  0  0  0  0  0  0  0  0  0  0
    4.0010    1.3100    0.0000 C   0  0  0  0  0  0  0  0  0  0  0  0
    8.3312   10.8100    0.0000 C   0  0  0  0  0  0  0  0  0  0  0  0
    9.1972    9.3100    0.0000 C   0  0  0  0  0  0  0  0  0  0  0  0
    9.1972   10.3100    0.0000 C   0  0  0  0  0  0  0  0  0  0  0  0
    1.4030   11.8100    0.0000 C   0  0  0  0  0  0  0  0  0  0  0  0
    3.1350   11.8100    0.0000 C   0  0  0  0  0  0  0  0  0  0  0  0
    2.2690   12.3100    0.0000 C   0  0  0  0  0  0  0  0  0  0  0  0
    5.4040    5.5000    0.0000 H   0  0  0  0  0  0  0  0  0  0  0  0
    4.0010    5.6900    0.0000 H   0  0  0  0  0  0  0  0  0  0  0  0
    4.0010    7.9300    0.0000 H   0  0  0  0  0  0  0  0  0  0  0  0
    5.7331    5.6900    0.0000 H   0  0  0  0  0  0  0  0  0  0  0  0
    6.2700    7.0000    0.0000 H   0  0  0  0  0  0  0  0  0  0  0  0
    2.5244    7.9177    0.0000 H   0  0  0  0  0  0  0  0  0  0  0  0
    2.9230    7.2274    0.0000 H   0  0  0  0  0  0  0  0  0  0  0  0
    2.5981    6.1200    0.0000 H   0  0  0  0  0  0  0  0  0  0  0  0
    7.1360    6.1200    0.0000 H   0  0  0  0  0  0  0  0  0  0  0  0
    2.5981    3.1200    0.0000 H   0  0  0  0  0  0  0  0  0  0  0  0
    5.4040    3.1200    0.0000 H   0  0  0  0  0  0  0  0  0  0  0  0
    8.3312    8.1900    0.0000 H   0  0  0  0  0  0  0  0  0  0  0  0
    6.9282   10.6200    0.0000 H   0  0  0  0  0  0  0  0  0  0  0  0
    3.6720   10.5000    0.0000 H   0  0  0  0  0  0  0  0  0  0  0  0
    0.8660   10.5000    0.0000 H   0  0  0  0  0  0  0  0  0  0  0  0
    6.2700    1.6200    0.0000 H   0  0  0  0  0  0  0  0  0  0  0  0
    1.7320    1.6200    0.0000 H   0  0  0  0  0  0  0  0  0  0  0  0
    3.4641    0.0000    0.0000 H   0  0  0  0  0  0  0  0  0  0  0  0
    7.7942   12.1200    0.0000 H   0  0  0  0  0  0  0  0  0  0  0  0
   10.0632    8.1900    0.0000 H   0  0  0  0  0  0  0  0  0  0  0  0
   10.6002   10.5000    0.0000 H   0  0  0  0  0  0  0  0  0  0  0  0
    0.0000   12.0000    0.0000 H   0  0  0  0  0  0  0  0  0  0  0  0
    4.0010   12.9300    0.0000 H   0  0  0  0  0  0  0  0  0  0  0  0
    1.7320   13.6200    0.0000 H   0  0  0  0  0  0  0  0  0  0  0  0
  2 22  1  0  0  0  0
  2 24  1  0  0  0  0
 20  3  1  1  0  0  0
  3 26  1  0  0  0  0
 21  4  1  6  0  0  0
  4 54  1  0  0  0  0
 23  5  1  6  0  0  0
  5 55  1  0  0  0  0
 24  6  1  1  0  0  0
  6 27  1  0  0  0  0
  7 25  1  0  0  0  0
  7 29  1  0  0  0  0
  8 26  2  0  0  0  0
  9 27  2  0  0  0  0
 10 29  2  0  0  0  0
 11 36  1  0  0  0  0
 11 62  1  0  0  0  0
 12 37  1  0  0  0  0
 12 63  1  0  0  0  0
 13 40  1  0  0  0  0
 13 64  1  0  0  0  0
 14 41  1  0  0  0  0
 14 65  1  0  0  0  0
 15 42  1  0  0  0  0
 15 66  1  0  0  0  0
 16 43  1  0  0  0  0
 16 67  1  0  0  0  0
 17 44  1  0  0  0  0
 17 68  1  0  0  0  0
 18 45  1  0  0  0  0
 18 69  1  0  0  0  0
 19 46  1  0  0  0  0
 19 70  1  0  0  0  0
 20 21  1  0  0  0  0
 20 23  1  0  0  0  0
 20 47  1  0  0  0  0
 21 22  1  0  0  0  0
 21 48  1  0  0  0  0
 22 25  1  1  0  0  0
 22 49  1  0  0  0  0
 23 24  1  0  0  0  0
 23 50  1  0  0  0  0
 24 51  1  0  0  0  0
 25 52  1  0  0  0  0
 25 53  1  0  0  0  0
 26 28  1  0  0  0  0
 27 30  1  0  0  0  0
 28 32  2  0  0  0  0
 28 33  1  0  0  0  0
 29 31  1  0  0  0  0
 30 34  2  0  0  0  0
 30 35  1  0  0  0  0
 31 38  2  0  0  0  0
 31 39  1  0  0  0  0
 32 37  1  0  0  0  0
 32 56  1  0  0  0  0
 33 36  2  0  0  0  0
 33 57  1  0  0  0  0
 34 42  1  0  0  0  0
 34 58  1  0  0  0  0
 35 41  2  0  0  0  0
 35 59  1  0  0  0  0
 36 40  1  0  0  0  0
 37 40  2  0  0  0  0
 38 45  1  0  0  0  0
 38 60  1  0  0  0  0
 39 44  2  0  0  0  0
 39 61  1  0  0  0  0
 41 43  1  0  0  0  0
 42 43  2  0  0  0  0
 44 46  1  0  0  0  0
 45 46  2  0  0  0  0
M  END
> <PUBCHEM_COMPOUND_CID>
129644277

> <PUBCHEM_COMPOUND_CANONICALIZED>
1

> <PUBCHEM_CACTVS_COMPLEXITY>
1010

> <PUBCHEM_CACTVS_HBOND_ACCEPTOR>
18

> <PUBCHEM_CACTVS_HBOND_DONOR>
11

> <PUBCHEM_CACTVS_ROTATABLE_BOND>
10

> <PUBCHEM_CACTVS_SUBSKEYS>
AAADceB4PgAAAAAgAAAAAAAAAAAAAAAAAAA0YMEAAAAAAAABUAAAGgAACAAADBSwmAMwDoAABgCIAiDSCAACAAAkIAAAiAEGiMgZNzKCNRqicQElwBUPuYfK7DzOIAABCAAAQABAAAIQAACAAAAAAAAAAA==

> <PUBCHEM_IUPAC_OPENEYE_NAME>
[(2R,3R,4S,5R,6S)-3,5-dihydroxy-4,6-bis[(3,4,5-trihydroxybenzoyl)oxy]tetrahydropyran-2-yl]methyl 3,4,5-trihydroxybenzoate;iron

> <PUBCHEM_IUPAC_CAS_NAME>
iron;3,4,5-trihydroxybenzoic acid [(2R,3R,4S,5R,6S)-3,5-dihydroxy-4,6-bis[oxo-(3,4,5-trihydroxyphenyl)methoxy]-2-oxanyl]methyl ester

> <PUBCHEM_IUPAC_NAME_MARKUP>
[(2<I>R</I>,3<I>R</I>,4<I>S</I>,5<I>R</I>,6<I>S</I>)-3,5-dihydroxy-4,6-bis[(3,4,5-trihydroxybenzoyl)oxy]oxan-2-yl]methyl 3,4,5-trihydroxybenzoate;iron

> <PUBCHEM_IUPAC_NAME>
[(2R,3R,4S,5R,6S)-3,5-dihydroxy-4,6-bis[(3,4,5-trihydroxybenzoyl)oxy]oxan-2-yl]methyl 3,4,5-trihydroxybenzoate;iron

> <PUBCHEM_IUPAC_SYSTEMATIC_NAME>
[(2R,3R,4S,5R,6S)-3,5-bis(oxidanyl)-4,6-bis[[3,4,5-tris(oxidanyl)phenyl]carbonyloxy]oxan-2-yl]methyl 3,4,5-tris(oxidanyl)benzoate;iron

> <PUBCHEM_IUPAC_TRADITIONAL_NAME>
iron;3,4,5-trihydroxybenzoic acid [(2R,3R,4S,5R,6S)-4,6-digalloyloxy-3,5-dihydroxy-tetrahydropyran-2-yl]methyl ester

> <PUBCHEM_IUPAC_INCHI>
InChI=1S/C27H24O18.Fe/c28-11-1-8(2-12(29)18(11)34)24(39)42-7-17-21(37)23(44-25(40)9-3-13(30)19(35)14(31)4-9)22(38)27(43-17)45-26(41)10-5-15(32)20(36)16(33)6-10;/h1-6,17,21-23,27-38H,7H2;/t17-,21-,22-,23+,27+;/m1./s1

> <PUBCHEM_IUPAC_INCHIKEY>
WWPIPWJAVDBDHI-IACMBERYSA-N

> <PUBCHEM_EXACT_MASS>
692.0312

> <PUBCHEM_MOLECULAR_FORMULA>
C27H24FeO18

> <PUBCHEM_MOLECULAR_WEIGHT>
692.3

> <PUBCHEM_OPENEYE_CAN_SMILES>
C1=C(C=C(C(=C1O)O)O)C(=O)OCC2C(C(C(C(O2)OC(=O)C3=CC(=C(C(=C3)O)O)O)O)OC(=O)C4=CC(=C(C(=C4)O)O)O)O.[Fe]

> <PUBCHEM_OPENEYE_ISO_SMILES>
C1=C(C=C(C(=C1O)O)O)C(=O)OC[C@@H]2[C@H]([C@@H]([C@H]([C@@H](O2)OC(=O)C3=CC(=C(C(=C3)O)O)O)O)OC(=O)C4=CC(=C(C(=C4)O)O)O)O.[Fe]

> <PUBCHEM_CACTVS_TPSA>
311

> <PUBCHEM_MONOISOTOPIC_WEIGHT>
692.0312

> <PUBCHEM_TOTAL_CHARGE>
0

> <PUBCHEM_HEAVY_ATOM_COUNT>
46

> <PUBCHEM_ATOM_DEF_STEREO_COUNT>
5

> <PUBCHEM_ATOM_UDEF_STEREO_COUNT>
0

> <PUBCHEM_BOND_DEF_STEREO_COUNT>
0

> <PUBCHEM_BOND_UDEF_STEREO_COUNT>
0

> <PUBCHEM_ISOTOPIC_ATOM_COUNT>
0

> <PUBCHEM_COMPONENT_COUNT>
2

> <PUBCHEM_CACTVS_TAUTO_COUNT>
-1

> <PUBCHEM_COORDINATE_TYPE>
1
5
255

> <PUBCHEM_BONDANNOTATIONS>
22  25  5
28  32  8
28  33  8
20  3  5
30  34  8
30  35  8
31  38  8
31  39  8
32  37  8
33  36  8
34  42  8
35  41  8
36  40  8
37  40  8
38  45  8
39  44  8
21  4  6
41  43  8
42  43  8
44  46  8
45  46  8
23  5  6
24  6  5

$$$$
129642120
  -OEChem-04052116542D

 69 70  0     1  0  0  0  0  0999 V2000
    8.5991    0.2115    0.0000 Zn  0  2  0  0  0  0  0  0  0  0  0  0
    6.0010    1.7115    0.0000 O   0  0  0  0  0  0  0  0  0  0  0  0
    7.7331    2.7115    0.0000 O   0  0  0  0  0  0  0  0  0  0  0  0
    6.0010   -0.2885    0.0000 O   0  0  0  0  0  0  0  0  0  0  0  0
    7.2331   -1.1545    0.0000 O   0  0  0  0  0  0  0  0  0  0  0  0
   10.0991    2.0776    0.0000 O   0  0  0  0  0  0  0  0  0  0  0  0
    6.8671    3.2115    0.0000 O   0  0  0  0  0  0  0  0  0  0  0  0
    8.7331   -2.0205    0.0000 O   0  0  0  0  0  0  0  0  0  0  0  0
   10.0991    3.8096    0.0000 O   0  0  0  0  0  0  0  0  0  0  0  0
    2.5369    2.7115    0.0000 O   0  0  0  0  0  0  0  0  0  0  0  0
    4.2690    5.7115    0.0000 O   0  0  0  0  0  0  0  0  0  0  0  0
    2.5369    4.7115    0.0000 O   0  0  0  0  0  0  0  0  0  0  0  0
    7.7331   -5.4846    0.0000 O   0  0  0  0  0  0  0  0  0  0  0  0
    4.7331   -3.7526    0.0000 O   0  0  0  0  0  0  0  0  0  0  0  0
    5.7331   -5.4846    0.0000 O   0  0  0  0  0  0  0  0  0  0  0  0
   13.5991    4.6756    0.0000 O   0  0  0  0  0  0  0  0  0  0  0  0
   13.5991    1.2115    0.0000 O   0  0  0  0  0  0  0  0  0  0  0  0
   14.5991    2.9436    0.0000 O   0  0  0  0  0  0  0  0  0  0  0  0
    6.8671    1.2115    0.0000 C   0  0  1  0  0  0  0  0  0  0  0  0
    7.7331    1.7115    0.0000 C   0  0  1  0  0  0  0  0  0  0  0  0
    8.5991    1.2115    0.0000 C   0  5  3  0  0  0  0  0  0  0  0  0
    6.8671    0.2115    0.0000 C   0  0  2  0  0  0  0  0  0  0  0  0
    7.7331   -0.2885    0.0000 C   0  5  3  0  0  0  0  0  0  0  0  0
    9.0991    2.0776    0.0000 C   0  0  0  0  0  0  0  0  0  0  0  0
    6.0010    2.7115    0.0000 C   0  0  0  0  0  0  0  0  0  0  0  0
    7.7331   -2.0205    0.0000 C   0  0  0  0  0  0  0  0  0  0  0  0
    5.1350    3.2115    0.0000 C   0  0  0  0  0  0  0  0  0  0  0  0
   10.5991    2.9436    0.0000 C   0  0  0  0  0  0  0  0  0  0  0  0
    7.2331   -2.8865    0.0000 C   0  0  0  0  0  0  0  0  0  0  0  0
   11.5991    2.9436    0.0000 C   0  0  0  0  0  0  0  0  0  0  0  0
    5.1350    4.2115    0.0000 C   0  0  0  0  0  0  0  0  0  0  0  0
    4.2690    2.7115    0.0000 C   0  0  0  0  0  0  0  0  0  0  0  0
    6.2331   -2.8865    0.0000 C   0  0  0  0  0  0  0  0  0  0  0  0
    7.7331   -3.7526    0.0000 C   0  0  0  0  0  0  0  0  0  0  0  0
    3.4030    3.2115    0.0000 C   0  0  0  0  0  0  0  0  0  0  0  0
    4.2690    4.7115    0.0000 C   0  0  0  0  0  0  0  0  0  0  0  0
   12.0991    2.0776    0.0000 C   0  0  0  0  0  0  0  0  0  0  0  0
   12.0991    3.8096    0.0000 C   0  0  0  0  0  0  0  0  0  0  0  0
    3.4030    4.2115    0.0000 C   0  0  0  0  0  0  0  0  0  0  0  0
    7.2331   -4.6186    0.0000 C   0  0  0  0  0  0  0  0  0  0  0  0
    5.7331   -3.7526    0.0000 C   0  0  0  0  0  0  0  0  0  0  0  0
    6.2331   -4.6186    0.0000 C   0  0  0  0  0  0  0  0  0  0  0  0
   13.0991    3.8096    0.0000 C   0  0  0  0  0  0  0  0  0  0  0  0
   13.0991    2.0776    0.0000 C   0  0  0  0  0  0  0  0  0  0  0  0
   13.5991    2.9436    0.0000 C   0  0  0  0  0  0  0  0  0  0  0  0
    6.3301    0.9015    0.0000 H   0  0  0  0  0  0  0  0  0  0  0  0
    8.2700    2.0215    0.0000 H   0  0  0  0  0  0  0  0  0  0  0  0
    9.2191    1.2115    0.0000 H   0  0  0  0  0  0  0  0  0  0  0  0
    7.4040   -0.0985    0.0000 H   0  0  0  0  0  0  0  0  0  0  0  0
    8.0431   -0.8254    0.0000 H   0  0  0  0  0  0  0  0  0  0  0  0
    9.2068    2.6881    0.0000 H   0  0  0  0  0  0  0  0  0  0  0  0
    8.5165    2.2896    0.0000 H   0  0  0  0  0  0  0  0  0  0  0  0
    8.2700    3.0215    0.0000 H   0  0  0  0  0  0  0  0  0  0  0  0
    5.4641    0.0215    0.0000 H   0  0  0  0  0  0  0  0  0  0  0  0
    5.6720    4.5215    0.0000 H   0  0  0  0  0  0  0  0  0  0  0  0
    4.2690    2.0915    0.0000 H   0  0  0  0  0  0  0  0  0  0  0  0
    5.9231   -2.3496    0.0000 H   0  0  0  0  0  0  0  0  0  0  0  0
    8.3531   -3.7526    0.0000 H   0  0  0  0  0  0  0  0  0  0  0  0
   11.7891    1.5406    0.0000 H   0  0  0  0  0  0  0  0  0  0  0  0
   11.7891    4.3466    0.0000 H   0  0  0  0  0  0  0  0  0  0  0  0
    2.0000    3.0215    0.0000 H   0  0  0  0  0  0  0  0  0  0  0  0
    4.8059    6.0215    0.0000 H   0  0  0  0  0  0  0  0  0  0  0  0
    2.5369    5.3315    0.0000 H   0  0  0  0  0  0  0  0  0  0  0  0
    8.3531   -5.4846    0.0000 H   0  0  0  0  0  0  0  0  0  0  0  0
    4.4231   -4.2895    0.0000 H   0  0  0  0  0  0  0  0  0  0  0  0
    6.0431   -6.0215    0.0000 H   0  0  0  0  0  0  0  0  0  0  0  0
   13.2891    5.2126    0.0000 H   0  0  0  0  0  0  0  0  0  0  0  0
   14.2191    1.2115    0.0000 H   0  0  0  0  0  0  0  0  0  0  0  0
   14.9091    3.4805    0.0000 H   0  0  0  0  0  0  0  0  0  0  0  0
 19  2  1  1  0  0  0
  2 25  1  0  0  0  0
 20  3  1  6  0  0  0
  3 53  1  0  0  0  0
 22  4  1  6  0  0  0
  4 54  1  0  0  0  0
  5 23  1  0  0  0  0
  5 26  1  0  0  0  0
  6 24  1  0  0  0  0
  6 28  1  0  0  0  0
  7 25  2  0  0  0  0
  8 26  2  0  0  0  0
  9 28  2  0  0  0  0
 10 35  1  0  0  0  0
 10 61  1  0  0  0  0
 11 36  1  0  0  0  0
 11 62  1  0  0  0  0
 12 39  1  0  0  0  0
 12 63  1  0  0  0  0
 13 40  1  0  0  0  0
 13 64  1  0  0  0  0
 14 41  1  0  0  0  0
 14 65  1  0  0  0  0
 15 42  1  0  0  0  0
 15 66  1  0  0  0  0
 16 43  1  0  0  0  0
 16 67  1  0  0  0  0
 17 44  1  0  0  0  0
 17 68  1  0  0  0  0
 18 45  1  0  0  0  0
 18 69  1  0  0  0  0
 19 20  1  0  0  0  0
 19 22  1  0  0  0  0
 19 46  1  0  0  0  0
 20 21  1  0  0  0  0
 20 47  1  0  0  0  0
 21 24  1  0  0  0  0
 21 48  1  0  0  0  0
 22 23  1  0  0  0  0
 22 49  1  0  0  0  0
 23 50  1  0  0  0  0
 24 51  1  0  0  0  0
 24 52  1  0  0  0  0
 25 27  1  0  0  0  0
 26 29  1  0  0  0  0
 27 31  2  0  0  0  0
 27 32  1  0  0  0  0
 28 30  1  0  0  0  0
 29 33  2  0  0  0  0
 29 34  1  0  0  0  0
 30 37  2  0  0  0  0
 30 38  1  0  0  0  0
 31 36  1  0  0  0  0
 31 55  1  0  0  0  0
 32 35  2  0  0  0  0
 32 56  1  0  0  0  0
 33 41  1  0  0  0  0
 33 57  1  0  0  0  0
 34 40  2  0  0  0  0
 34 58  1  0  0  0  0
 35 39  1  0  0  0  0
 36 39  2  0  0  0  0
 37 44  1  0  0  0  0
 37 59  1  0  0  0  0
 38 43  2  0  0  0  0
 38 60  1  0  0  0  0
 40 42  1  0  0  0  0
 41 42  2  0  0  0  0
 43 45  1  0  0  0  0
 44 45  2  0  0  0  0
M  CHG  3   1   2  21  -1  23  -1
M  END
> <PUBCHEM_COMPOUND_CID>
129642120

> <PUBCHEM_COMPOUND_CANONICALIZED>
1

> <PUBCHEM_CACTVS_COMPLEXITY>
936

> <PUBCHEM_CACTVS_HBOND_ACCEPTOR>
19

> <PUBCHEM_CACTVS_HBOND_DONOR>
11

> <PUBCHEM_CACTVS_ROTATABLE_BOND>
10

> <PUBCHEM_CACTVS_SUBSKEYS>
AAADceB4PgAAAAACAAAAAAAAAAAAAAAAAAA0YMEAAAAAAAABUAAAGgAACAAADBSgmAIwDoAABgCIAiDSCAACAAAkIAAAiAEGiMgJNzKCNRqCcQElwBULuYfK7DzOIAABCAAAQABAAAIQAACAAAAAAAAAAA==

> <PUBCHEM_IUPAC_OPENEYE_NAME>
zinc;[(3R,4S,5S)-3,5-dihydroxy-4,6-bis[(3,4,5-trihydroxybenzoyl)oxy]hexyl] 3,4,5-trihydroxybenzoate

> <PUBCHEM_IUPAC_CAS_NAME>
zinc;3,4,5-trihydroxybenzoic acid [(3R,4S,5S)-3,5-dihydroxy-4,6-bis[oxo-(3,4,5-trihydroxyphenyl)methoxy]hexyl] ester

> <PUBCHEM_IUPAC_NAME_MARKUP>
zinc;[(3<I>R</I>,4<I>S</I>,5<I>S</I>)-3,5-dihydroxy-4,6-bis[(3,4,5-trihydroxybenzoyl)oxy]hexyl] 3,4,5-trihydroxybenzoate

> <PUBCHEM_IUPAC_NAME>
zinc;[(3R,4S,5S)-3,5-dihydroxy-4,6-bis[(3,4,5-trihydroxybenzoyl)oxy]hexyl] 3,4,5-trihydroxybenzoate

> <PUBCHEM_IUPAC_SYSTEMATIC_NAME>
zinc;[(3R,4S,5S)-3,5-bis(oxidanyl)-4,6-bis[[3,4,5-tris(oxidanyl)phenyl]carbonyloxy]hexyl] 3,4,5-tris(oxidanyl)benzoate

> <PUBCHEM_IUPAC_TRADITIONAL_NAME>
zinc;3,4,5-trihydroxybenzoic acid [(3R,4S,5S)-4,6-digalloyloxy-3,5-dihydroxy-hexyl] ester

> <PUBCHEM_IUPAC_INCHI>
InChI=1S/C27H24O17.Zn/c28-13(1-2-42-25(39)10-3-14(29)21(36)15(30)4-10)24(44-27(41)12-7-18(33)23(38)19(34)8-12)20(35)9-43-26(40)11-5-16(31)22(37)17(32)6-11;/h1,3-9,13,20,24,28-38H,2H2;/q-2;+2/t13-,20+,24+;/m1./s1

> <PUBCHEM_IUPAC_INCHIKEY>
DUWABVNASRUGOP-AAMKEMHKSA-N

> <PUBCHEM_EXACT_MASS>
684.030491

> <PUBCHEM_MOLECULAR_FORMULA>
C27H24O17Zn

> <PUBCHEM_MOLECULAR_WEIGHT>
685.8

> <PUBCHEM_OPENEYE_CAN_SMILES>
C1=C(C=C(C(=C1O)O)O)C(=O)OC[CH-]C(C(C([CH-]OC(=O)C2=CC(=C(C(=C2)O)O)O)O)OC(=O)C3=CC(=C(C(=C3)O)O)O)O.[Zn+2]

> <PUBCHEM_OPENEYE_ISO_SMILES>
C1=C(C=C(C(=C1O)O)O)C(=O)OC[CH-][C@H]([C@@H]([C@H]([CH-]OC(=O)C2=CC(=C(C(=C2)O)O)O)O)OC(=O)C3=CC(=C(C(=C3)O)O)O)O.[Zn+2]

> <PUBCHEM_CACTVS_TPSA>
301

> <PUBCHEM_MONOISOTOPIC_WEIGHT>
684.030491

> <PUBCHEM_TOTAL_CHARGE>
0

> <PUBCHEM_HEAVY_ATOM_COUNT>
45

> <PUBCHEM_ATOM_DEF_STEREO_COUNT>
3

> <PUBCHEM_ATOM_UDEF_STEREO_COUNT>
0

> <PUBCHEM_BOND_DEF_STEREO_COUNT>
0

> <PUBCHEM_BOND_UDEF_STEREO_COUNT>
0

> <PUBCHEM_ISOTOPIC_ATOM_COUNT>
0

> <PUBCHEM_COMPONENT_COUNT>
2

> <PUBCHEM_CACTVS_TAUTO_COUNT>
-1

> <PUBCHEM_NONSTANDARDBOND>
1  21  6
1  23  6

> <PUBCHEM_COORDINATE_TYPE>
1
5
255

> <PUBCHEM_BONDANNOTATIONS>
19  2  5
27  31  8
27  32  8
29  33  8
29  34  8
20  3  6
30  37  8
30  38  8
31  36  8
32  35  8
33  41  8
34  40  8
35  39  8
36  39  8
37  44  8
38  43  8
22  4  6
40  42  8
41  42  8
43  45  8
44  45  8

$$$$
129641814
  -OEChem-04052116542D

 83 85  0     1  0  0  0  0  0999 V2000
   11.4050    7.8100    0.0000 O   0  0  0  0  0  0  0  0  0  0  0  0
   11.4050    4.8100    0.0000 O   0  0  0  0  0  0  0  0  0  0  0  0
    9.6730    5.8100    0.0000 O   0  0  0  0  0  0  0  0  0  0  0  0
   13.1371    5.8100    0.0000 O   0  0  0  0  0  0  0  0  0  0  0  0
   13.1371    7.8100    0.0000 O   0  0  0  0  0  0  0  0  0  0  0  0
    9.6730    8.8100    0.0000 O   0  0  0  0  0  0  0  0  0  0  0  0
    9.6730    4.8100    0.0000 O   0  0  0  0  0  0  0  0  0  0  0  0
   12.2711    9.3100    0.0000 O   0  0  0  0  0  0  0  0  0  0  0  0
    7.9409    8.8100    0.0000 O   0  0  0  0  0  0  0  0  0  0  0  0
   12.2711    1.3100    0.0000 O   0  0  0  0  0  0  0  0  0  0  0  0
    8.8070    1.3100    0.0000 O   0  0  0  0  0  0  0  0  0  0  0  0
   10.5390    0.3100    0.0000 O   0  0  0  0  0  0  0  0  0  0  0  0
   14.8691   11.8100    0.0000 O   0  0  0  0  0  0  0  0  0  0  0  0
   16.6012    8.8100    0.0000 O   0  0  0  0  0  0  0  0  0  0  0  0
   16.6012   10.8100    0.0000 O   0  0  0  0  0  0  0  0  0  0  0  0
    7.0749   12.3100    0.0000 O   0  0  0  0  0  0  0  0  0  0  0  0
   10.5390   12.3100    0.0000 O   0  0  0  0  0  0  0  0  0  0  0  0
    8.8070   13.3100    0.0000 O   0  0  0  0  0  0  0  0  0  0  0  0
    2.2690    5.9775    0.0000 O   0  0  0  0  0  0  0  0  0  0  0  0
    4.0010    6.9775    0.0000 O   0  0  0  0  0  0  0  0  0  0  0  0
    0.5369    6.9775    0.0000 O   0  0  0  0  0  0  0  0  0  0  0  0
   11.4050    5.8100    0.0000 C   0  0  1  0  0  0  0  0  0  0  0  0
   10.5390    6.3100    0.0000 C   0  0  1  0  0  0  0  0  0  0  0  0
   10.5390    7.3100    0.0000 C   0  0  1  0  0  0  0  0  0  0  0  0
   12.2711    6.3100    0.0000 C   0  0  2  0  0  0  0  0  0  0  0  0
   12.2711    7.3100    0.0000 C   0  0  1  0  0  0  0  0  0  0  0  0
    9.6730    7.8100    0.0000 C   0  0  0  0  0  0  0  0  0  0  0  0
   10.5390    4.3100    0.0000 C   0  0  0  0  0  0  0  0  0  0  0  0
   13.1371    8.8100    0.0000 C   0  0  0  0  0  0  0  0  0  0  0  0
   10.5390    3.3100    0.0000 C   0  0  0  0  0  0  0  0  0  0  0  0
    8.8070    9.3100    0.0000 C   0  0  0  0  0  0  0  0  0  0  0  0
   14.0031    9.3100    0.0000 C   0  0  0  0  0  0  0  0  0  0  0  0
    8.8070   10.3100    0.0000 C   0  0  0  0  0  0  0  0  0  0  0  0
    9.6730    2.8100    0.0000 C   0  0  0  0  0  0  0  0  0  0  0  0
   11.4050    2.8100    0.0000 C   0  0  0  0  0  0  0  0  0  0  0  0
   14.8691    8.8100    0.0000 C   0  0  0  0  0  0  0  0  0  0  0  0
   14.0031   10.3100    0.0000 C   0  0  0  0  0  0  0  0  0  0  0  0
   11.4050    1.8100    0.0000 C   0  0  0  0  0  0  0  0  0  0  0  0
    9.6730    1.8100    0.0000 C   0  0  0  0  0  0  0  0  0  0  0  0
    9.6730   10.8100    0.0000 C   0  0  0  0  0  0  0  0  0  0  0  0
    7.9409   10.8100    0.0000 C   0  0  0  0  0  0  0  0  0  0  0  0
   10.5390    1.3100    0.0000 C   0  0  0  0  0  0  0  0  0  0  0  0
   14.8691   10.8100    0.0000 C   0  0  0  0  0  0  0  0  0  0  0  0
   15.7352    9.3100    0.0000 C   0  0  0  0  0  0  0  0  0  0  0  0
   15.7352   10.3100    0.0000 C   0  0  0  0  0  0  0  0  0  0  0  0
    7.9409   11.8100    0.0000 C   0  0  0  0  0  0  0  0  0  0  0  0
    9.6730   11.8100    0.0000 C   0  0  0  0  0  0  0  0  0  0  0  0
    8.8070   12.3100    0.0000 C   0  0  0  0  0  0  0  0  0  0  0  0
    2.2690    6.9775    0.0000 C   0  0  0  0  0  0  0  0  0  0  0  0
    3.1350    7.4775    0.0000 C   0  0  0  0  0  0  0  0  0  0  0  0
    1.4030    7.4775    0.0000 C   0  0  0  0  0  0  0  0  0  0  0  0
   10.8681    5.5000    0.0000 H   0  0  0  0  0  0  0  0  0  0  0  0
   10.5390    5.6900    0.0000 H   0  0  0  0  0  0  0  0  0  0  0  0
   10.5390    7.9300    0.0000 H   0  0  0  0  0  0  0  0  0  0  0  0
   12.2711    5.6900    0.0000 H   0  0  0  0  0  0  0  0  0  0  0  0
   12.2711    7.9300    0.0000 H   0  0  0  0  0  0  0  0  0  0  0  0
    9.0624    7.9177    0.0000 H   0  0  0  0  0  0  0  0  0  0  0  0
    9.4609    7.2274    0.0000 H   0  0  0  0  0  0  0  0  0  0  0  0
    9.1360    6.1200    0.0000 H   0  0  0  0  0  0  0  0  0  0  0  0
   13.6740    6.1200    0.0000 H   0  0  0  0  0  0  0  0  0  0  0  0
    9.1360    3.1200    0.0000 H   0  0  0  0  0  0  0  0  0  0  0  0
   11.9420    3.1200    0.0000 H   0  0  0  0  0  0  0  0  0  0  0  0
   14.8691    8.1900    0.0000 H   0  0  0  0  0  0  0  0  0  0  0  0
   13.4662   10.6200    0.0000 H   0  0  0  0  0  0  0  0  0  0  0  0
   10.2099   10.5000    0.0000 H   0  0  0  0  0  0  0  0  0  0  0  0
    7.4040   10.5000    0.0000 H   0  0  0  0  0  0  0  0  0  0  0  0
   12.8080    1.6200    0.0000 H   0  0  0  0  0  0  0  0  0  0  0  0
    8.2700    1.6200    0.0000 H   0  0  0  0  0  0  0  0  0  0  0  0
   10.0021    0.0000    0.0000 H   0  0  0  0  0  0  0  0  0  0  0  0
   14.3322   12.1200    0.0000 H   0  0  0  0  0  0  0  0  0  0  0  0
   16.6012    8.1900    0.0000 H   0  0  0  0  0  0  0  0  0  0  0  0
   17.1381   10.5000    0.0000 H   0  0  0  0  0  0  0  0  0  0  0  0
    6.5380   12.0000    0.0000 H   0  0  0  0  0  0  0  0  0  0  0  0
   10.5390   12.9300    0.0000 H   0  0  0  0  0  0  0  0  0  0  0  0
    8.2700   13.6200    0.0000 H   0  0  0  0  0  0  0  0  0  0  0  0
    1.7320    6.6675    0.0000 H   0  0  0  0  0  0  0  0  0  0  0  0
    3.5335    7.9525    0.0000 H   0  0  0  0  0  0  0  0  0  0  0  0
    2.7365    7.9525    0.0000 H   0  0  0  0  0  0  0  0  0  0  0  0
    1.8015    7.9525    0.0000 H   0  0  0  0  0  0  0  0  0  0  0  0
    1.0044    7.9525    0.0000 H   0  0  0  0  0  0  0  0  0  0  0  0
    1.7320    5.6675    0.0000 H   0  0  0  0  0  0  0  0  0  0  0  0
    4.5380    7.2875    0.0000 H   0  0  0  0  0  0  0  0  0  0  0  0
    0.0000    7.2875    0.0000 H   0  0  0  0  0  0  0  0  0  0  0  0
  1 24  1  0  0  0  0
  1 26  1  0  0  0  0
 22  2  1  1  0  0  0
  2 28  1  0  0  0  0
 23  3  1  6  0  0  0
  3 59  1  0  0  0  0
 25  4  1  6  0  0  0
  4 60  1  0  0  0  0
 26  5  1  1  0  0  0
  5 29  1  0  0  0  0
  6 27  1  0  0  0  0
  6 31  1  0  0  0  0
  7 28  2  0  0  0  0
  8 29  2  0  0  0  0
  9 31  2  0  0  0  0
 10 38  1  0  0  0  0
 10 67  1  0  0  0  0
 11 39  1  0  0  0  0
 11 68  1  0  0  0  0
 12 42  1  0  0  0  0
 12 69  1  0  0  0  0
 13 43  1  0  0  0  0
 13 70  1  0  0  0  0
 14 44  1  0  0  0  0
 14 71  1  0  0  0  0
 15 45  1  0  0  0  0
 15 72  1  0  0  0  0
 16 46  1  0  0  0  0
 16 73  1  0  0  0  0
 17 47  1  0  0  0  0
 17 74  1  0  0  0  0
 18 48  1  0  0  0  0
 18 75  1  0  0  0  0
 19 49  1  0  0  0  0
 19 81  1  0  0  0  0
 20 50  1  0  0  0  0
 20 82  1  0  0  0  0
 21 51  1  0  0  0  0
 21 83  1  0  0  0  0
 22 23  1  0  0  0  0
 22 25  1  0  0  0  0
 22 52  1  0  0  0  0
 23 24  1  0  0  0  0
 23 53  1  0  0  0  0
 24 27  1  1  0  0  0
 24 54  1  0  0  0  0
 25 26  1  0  0  0  0
 25 55  1  0  0  0  0
 26 56  1  0  0  0  0
 27 57  1  0  0  0  0
 27 58  1  0  0  0  0
 28 30  1  0  0  0  0
 29 32  1  0  0  0  0
 30 34  2  0  0  0  0
 30 35  1  0  0  0  0
 31 33  1  0  0  0  0
 32 36  2  0  0  0  0
 32 37  1  0  0  0  0
 33 40  2  0  0  0  0
 33 41  1  0  0  0  0
 34 39  1  0  0  0  0
 34 61  1  0  0  0  0
 35 38  2  0  0  0  0
 35 62  1  0  0  0  0
 36 44  1  0  0  0  0
 36 63  1  0  0  0  0
 37 43  2  0  0  0  0
 37 64  1  0  0  0  0
 38 42  1  0  0  0  0
 39 42  2  0  0  0  0
 40 47  1  0  0  0  0
 40 65  1  0  0  0  0
 41 46  2  0  0  0  0
 41 66  1  0  0  0  0
 43 45  1  0  0  0  0
 44 45  2  0  0  0  0
 46 48  1  0  0  0  0
 47 48  2  0  0  0  0
 49 50  1  0  0  0  0
 49 51  1  0  0  0  0
 49 76  1  0  0  0  0
 50 77  1  0  0  0  0
 50 78  1  0  0  0  0
 51 79  1  0  0  0  0
 51 80  1  0  0  0  0
M  END
> <PUBCHEM_COMPOUND_CID>
129641814

> <PUBCHEM_COMPOUND_CANONICALIZED>
1

> <PUBCHEM_CACTVS_COMPLEXITY>
1030

> <PUBCHEM_CACTVS_HBOND_ACCEPTOR>
21

> <PUBCHEM_CACTVS_HBOND_DONOR>
14

> <PUBCHEM_CACTVS_ROTATABLE_BOND>
12

> <PUBCHEM_CACTVS_SUBSKEYS>
AAADcfB4PgAAAAAAAAAAAAAAAAAAAAAAAAA0YMEAAAAAAAABUAAAGgAACAAADBSwmAMwDoAABgCIAiDSCAACAAAkIAAAiAEGiMgZNzKCNRqicQElwBUPuYfK7DzOIAABCAAAQABAAAIQAACAAAAAAAAAAA==

> <PUBCHEM_IUPAC_OPENEYE_NAME>
[(2R,3R,4S,5R,6S)-3,5-dihydroxy-4,6-bis[(3,4,5-trihydroxybenzoyl)oxy]tetrahydropyran-2-yl]methyl 3,4,5-trihydroxybenzoate;glycerol

> <PUBCHEM_IUPAC_CAS_NAME>
propane-1,2,3-triol;3,4,5-trihydroxybenzoic acid [(2R,3R,4S,5R,6S)-3,5-dihydroxy-4,6-bis[oxo-(3,4,5-trihydroxyphenyl)methoxy]-2-oxanyl]methyl ester

> <PUBCHEM_IUPAC_NAME_MARKUP>
[(2<I>R</I>,3<I>R</I>,4<I>S</I>,5<I>R</I>,6<I>S</I>)-3,5-dihydroxy-4,6-bis[(3,4,5-trihydroxybenzoyl)oxy]oxan-2-yl]methyl 3,4,5-trihydroxybenzoate;propane-1,2,3-triol

> <PUBCHEM_IUPAC_NAME>
[(2R,3R,4S,5R,6S)-3,5-dihydroxy-4,6-bis[(3,4,5-trihydroxybenzoyl)oxy]oxan-2-yl]methyl 3,4,5-trihydroxybenzoate;propane-1,2,3-triol

> <PUBCHEM_IUPAC_SYSTEMATIC_NAME>
[(2R,3R,4S,5R,6S)-3,5-bis(oxidanyl)-4,6-bis[[3,4,5-tris(oxidanyl)phenyl]carbonyloxy]oxan-2-yl]methyl 3,4,5-tris(oxidanyl)benzoate;propane-1,2,3-triol

> <PUBCHEM_IUPAC_TRADITIONAL_NAME>
glycerol;3,4,5-trihydroxybenzoic acid [(2R,3R,4S,5R,6S)-4,6-digalloyloxy-3,5-dihydroxy-tetrahydropyran-2-yl]methyl ester

> <PUBCHEM_IUPAC_INCHI>
InChI=1S/C27H24O18.C3H8O3/c28-11-1-8(2-12(29)18(11)34)24(39)42-7-17-21(37)23(44-25(40)9-3-13(30)19(35)14(31)4-9)22(38)27(43-17)45-26(41)10-5-15(32)20(36)16(33)6-10;4-1-3(6)2-5/h1-6,17,21-23,27-38H,7H2;3-6H,1-2H2/t17-,21-,22-,23+,27+;/m1./s1

> <PUBCHEM_IUPAC_INCHIKEY>
MRVHKRLGYWQIFG-IACMBERYSA-N

> <PUBCHEM_EXACT_MASS>
728.143608

> <PUBCHEM_MOLECULAR_FORMULA>
C30H32O21

> <PUBCHEM_MOLECULAR_WEIGHT>
728.6

> <PUBCHEM_OPENEYE_CAN_SMILES>
C1=C(C=C(C(=C1O)O)O)C(=O)OCC2C(C(C(C(O2)OC(=O)C3=CC(=C(C(=C3)O)O)O)O)OC(=O)C4=CC(=C(C(=C4)O)O)O)O.C(C(CO)O)O

> <PUBCHEM_OPENEYE_ISO_SMILES>
C1=C(C=C(C(=C1O)O)O)C(=O)OC[C@@H]2[C@H]([C@@H]([C@H]([C@@H](O2)OC(=O)C3=CC(=C(C(=C3)O)O)O)O)OC(=O)C4=CC(=C(C(=C4)O)O)O)O.C(C(CO)O)O

> <PUBCHEM_CACTVS_TPSA>
371

> <PUBCHEM_MONOISOTOPIC_WEIGHT>
728.143608

> <PUBCHEM_TOTAL_CHARGE>
0

> <PUBCHEM_HEAVY_ATOM_COUNT>
51

> <PUBCHEM_ATOM_DEF_STEREO_COUNT>
5

> <PUBCHEM_ATOM_UDEF_STEREO_COUNT>
0

> <PUBCHEM_BOND_DEF_STEREO_COUNT>
0

> <PUBCHEM_BOND_UDEF_STEREO_COUNT>
0

> <PUBCHEM_ISOTOPIC_ATOM_COUNT>
0

> <PUBCHEM_COMPONENT_COUNT>
2

> <PUBCHEM_CACTVS_TAUTO_COUNT>
-1

> <PUBCHEM_COORDINATE_TYPE>
1
5
255

> <PUBCHEM_BONDANNOTATIONS>
22  2  5
24  27  5
23  3  6
30  34  8
30  35  8
32  36  8
32  37  8
33  40  8
33  41  8
34  39  8
35  38  8
36  44  8
37  43  8
38  42  8
39  42  8
25  4  6
40  47  8
41  46  8
43  45  8
44  45  8
46  48  8
47  48  8
26  5  5

$$$$
129640750
  -OEChem-04052116542D

 72 76  0     1  0  0  0  0  0999 V2000
    9.2629    0.0000    0.0000 S   0  0  0  0  0  0  0  0  0  0  0  0
    6.8671   -1.0000    0.0000 O   0  0  0  0  0  0  0  0  0  0  0  0
    8.6793    0.8047    0.0000 O   0  0  0  0  0  0  0  0  0  0  0  0
    8.6793   -0.8047    0.0000 O   0  0  0  0  0  0  0  0  0  0  0  0
    6.8671    2.0000    0.0000 O   0  0  0  0  0  0  0  0  0  0  0  0
    7.7331    1.5000    0.0000 O   0  0  0  0  0  0  0  0  0  0  0  0
    7.7331   -1.5000    0.0000 O   0  0  0  0  0  0  0  0  0  0  0  0
    5.1350    1.0000    0.0000 O   0  0  0  0  0  0  0  0  0  0  0  0
    5.1350   -2.0000    0.0000 O   0  0  0  0  0  0  0  0  0  0  0  0
   10.0719   -0.5878    0.0000 O   0  0  0  0  0  0  0  0  0  0  0  0
   10.0719    0.5878    0.0000 O   0  0  0  0  0  0  0  0  0  0  0  0
    5.1350    2.0000    0.0000 O   0  0  0  0  0  0  0  0  0  0  0  0
    9.4651   -1.5000    0.0000 O   0  0  0  0  0  0  0  0  0  0  0  0
    3.4030   -2.0000    0.0000 O   0  0  0  0  0  0  0  0  0  0  0  0
    4.2690    5.5000    0.0000 O   0  0  0  0  0  0  0  0  0  0  0  0
    7.7331    5.5000    0.0000 O   0  0  0  0  0  0  0  0  0  0  0  0
   10.3312   -5.0000    0.0000 O   0  0  0  0  0  0  0  0  0  0  0  0
    6.8671   -5.0000    0.0000 O   0  0  0  0  0  0  0  0  0  0  0  0
    6.0010    6.5000    0.0000 O   0  0  0  0  0  0  0  0  0  0  0  0
    8.5991   -6.0000    0.0000 O   0  0  0  0  0  0  0  0  0  0  0  0
    6.0010   -5.5000    0.0000 O   0  0  0  0  0  0  0  0  0  0  0  0
    2.5369   -5.5000    0.0000 O   0  0  0  0  0  0  0  0  0  0  0  0
    4.2690   -6.5000    0.0000 O   0  0  0  0  0  0  0  0  0  0  0  0
    7.7331    0.5000    0.0000 C   0  0  2  0  0  0  0  0  0  0  0  0
    6.8671    1.0000    0.0000 C   0  0  2  0  0  0  0  0  0  0  0  0
    7.7331   -0.5000    0.0000 C   0  0  2  0  0  0  0  0  0  0  0  0
    6.0010    0.5000    0.0000 C   0  0  1  0  0  0  0  0  0  0  0  0
    6.0010   -0.5000    0.0000 C   0  0  1  0  0  0  0  0  0  0  0  0
    5.1350   -1.0000    0.0000 C   0  0  0  0  0  0  0  0  0  0  0  0
    6.0010    2.5000    0.0000 C   0  0  0  0  0  0  0  0  0  0  0  0
    8.5991   -2.0000    0.0000 C   0  0  0  0  0  0  0  0  0  0  0  0
    6.0010    3.5000    0.0000 C   0  0  0  0  0  0  0  0  0  0  0  0
    8.5991   -3.0000    0.0000 C   0  0  0  0  0  0  0  0  0  0  0  0
    4.2690   -2.5000    0.0000 C   0  0  0  0  0  0  0  0  0  0  0  0
    6.8671    4.0000    0.0000 C   0  0  0  0  0  0  0  0  0  0  0  0
    5.1350    4.0000    0.0000 C   0  0  0  0  0  0  0  0  0  0  0  0
    7.7331   -3.5000    0.0000 C   0  0  0  0  0  0  0  0  0  0  0  0
    9.4651   -3.5000    0.0000 C   0  0  0  0  0  0  0  0  0  0  0  0
    4.2690   -3.5000    0.0000 C   0  0  0  0  0  0  0  0  0  0  0  0
    5.1350    5.0000    0.0000 C   0  0  0  0  0  0  0  0  0  0  0  0
    6.8671    5.0000    0.0000 C   0  0  0  0  0  0  0  0  0  0  0  0
    9.4651   -4.5000    0.0000 C   0  0  0  0  0  0  0  0  0  0  0  0
    7.7331   -4.5000    0.0000 C   0  0  0  0  0  0  0  0  0  0  0  0
    6.0010    5.5000    0.0000 C   0  0  0  0  0  0  0  0  0  0  0  0
    3.4030   -4.0000    0.0000 C   0  0  0  0  0  0  0  0  0  0  0  0
    5.1350   -4.0000    0.0000 C   0  0  0  0  0  0  0  0  0  0  0  0
    8.5991   -5.0000    0.0000 C   0  0  0  0  0  0  0  0  0  0  0  0
    5.1350   -5.0000    0.0000 C   0  0  0  0  0  0  0  0  0  0  0  0
    3.4030   -5.0000    0.0000 C   0  0  0  0  0  0  0  0  0  0  0  0
    4.2690   -5.5000    0.0000 C   0  0  0  0  0  0  0  0  0  0  0  0
    6.3301    1.3100    0.0000 H   0  0  0  0  0  0  0  0  0  0  0  0
    5.4641    0.1900    0.0000 H   0  0  0  0  0  0  0  0  0  0  0  0
    6.0010   -1.1200    0.0000 H   0  0  0  0  0  0  0  0  0  0  0  0
    4.9230   -0.4174    0.0000 H   0  0  0  0  0  0  0  0  0  0  0  0
    4.5244   -1.1077    0.0000 H   0  0  0  0  0  0  0  0  0  0  0  0
    8.2700    1.8100    0.0000 H   0  0  0  0  0  0  0  0  0  0  0  0
    4.5981    0.6900    0.0000 H   0  0  0  0  0  0  0  0  0  0  0  0
    7.4040    3.6900    0.0000 H   0  0  0  0  0  0  0  0  0  0  0  0
    4.5981    3.6900    0.0000 H   0  0  0  0  0  0  0  0  0  0  0  0
    7.1962   -3.1900    0.0000 H   0  0  0  0  0  0  0  0  0  0  0  0
   10.0021   -3.1900    0.0000 H   0  0  0  0  0  0  0  0  0  0  0  0
    2.8660   -3.6900    0.0000 H   0  0  0  0  0  0  0  0  0  0  0  0
    5.6720   -3.6900    0.0000 H   0  0  0  0  0  0  0  0  0  0  0  0
    3.7320    5.1900    0.0000 H   0  0  0  0  0  0  0  0  0  0  0  0
    7.7331    6.1200    0.0000 H   0  0  0  0  0  0  0  0  0  0  0  0
   10.8681   -4.6900    0.0000 H   0  0  0  0  0  0  0  0  0  0  0  0
    6.8671   -5.6200    0.0000 H   0  0  0  0  0  0  0  0  0  0  0  0
    5.4641    6.8100    0.0000 H   0  0  0  0  0  0  0  0  0  0  0  0
    9.1360   -6.3100    0.0000 H   0  0  0  0  0  0  0  0  0  0  0  0
    6.0010   -6.1200    0.0000 H   0  0  0  0  0  0  0  0  0  0  0  0
    2.0000   -5.1900    0.0000 H   0  0  0  0  0  0  0  0  0  0  0  0
    3.7320   -6.8100    0.0000 H   0  0  0  0  0  0  0  0  0  0  0  0
  1  3  1  0  0  0  0
  1  4  1  0  0  0  0
  1 10  2  0  0  0  0
  1 11  2  0  0  0  0
  2 26  1  0  0  0  0
  2 28  1  0  0  0  0
  3 24  1  0  0  0  0
  4 26  1  0  0  0  0
 25  5  1  6  0  0  0
  5 30  1  0  0  0  0
 24  6  1  6  0  0  0
  6 56  1  0  0  0  0
 26  7  1  1  0  0  0
  7 31  1  0  0  0  0
 27  8  1  1  0  0  0
  8 57  1  0  0  0  0
  9 29  1  0  0  0  0
  9 34  1  0  0  0  0
 12 30  2  0  0  0  0
 13 31  2  0  0  0  0
 14 34  2  0  0  0  0
 15 40  1  0  0  0  0
 15 64  1  0  0  0  0
 16 41  1  0  0  0  0
 16 65  1  0  0  0  0
 17 42  1  0  0  0  0
 17 66  1  0  0  0  0
 18 43  1  0  0  0  0
 18 67  1  0  0  0  0
 19 44  1  0  0  0  0
 19 68  1  0  0  0  0
 20 47  1  0  0  0  0
 20 69  1  0  0  0  0
 21 48  1  0  0  0  0
 21 70  1  0  0  0  0
 22 49  1  0  0  0  0
 22 71  1  0  0  0  0
 23 50  1  0  0  0  0
 23 72  1  0  0  0  0
 24 25  1  0  0  0  0
 24 26  1  0  0  0  0
 25 27  1  0  0  0  0
 25 51  1  0  0  0  0
 27 28  1  0  0  0  0
 27 52  1  0  0  0  0
 28 29  1  6  0  0  0
 28 53  1  0  0  0  0
 29 54  1  0  0  0  0
 29 55  1  0  0  0  0
 30 32  1  0  0  0  0
 31 33  1  0  0  0  0
 32 35  2  0  0  0  0
 32 36  1  0  0  0  0
 33 37  2  0  0  0  0
 33 38  1  0  0  0  0
 34 39  1  0  0  0  0
 35 41  1  0  0  0  0
 35 58  1  0  0  0  0
 36 40  2  0  0  0  0
 36 59  1  0  0  0  0
 37 43  1  0  0  0  0
 37 60  1  0  0  0  0
 38 42  2  0  0  0  0
 38 61  1  0  0  0  0
 39 45  2  0  0  0  0
 39 46  1  0  0  0  0
 40 44  1  0  0  0  0
 41 44  2  0  0  0  0
 42 47  1  0  0  0  0
 43 47  2  0  0  0  0
 45 49  1  0  0  0  0
 45 62  1  0  0  0  0
 46 48  2  0  0  0  0
 46 63  1  0  0  0  0
 48 50  1  0  0  0  0
 49 50  2  0  0  0  0
M  END
> <PUBCHEM_COMPOUND_CID>
129640750

> <PUBCHEM_COMPOUND_CANONICALIZED>
1

> <PUBCHEM_CACTVS_COMPLEXITY>
1350

> <PUBCHEM_CACTVS_HBOND_ACCEPTOR>
22

> <PUBCHEM_CACTVS_HBOND_DONOR>
11

> <PUBCHEM_CACTVS_ROTATABLE_BOND>
10

> <PUBCHEM_CACTVS_SUBSKEYS>
AAADceB4PgBAAAAAAAAAAAAAAAAAASAAAAA0YMEAAAAAAEgBUAAAGgAACAAADBSgmAIwDoAABgCIAiDSCDACAAAkIAAAiAEGiMgZNzKCNRqicQElwBUPuYfK7DzOIAABCAAAQABAAAIQAACAAAAAAAAAAA==

> <PUBCHEM_IUPAC_OPENEYE_NAME>
[(3aS,5R,6R,7S,7aR)-6,7a-dihydroxy-2,2-dioxo-3a,7-bis[(3,4,5-trihydroxybenzoyl)oxy]-6,7-dihydro-5H-[1,3,2]dioxathiolo[4,5-b]pyran-5-yl]methyl 3,4,5-trihydroxybenzoate

> <PUBCHEM_IUPAC_CAS_NAME>
3,4,5-trihydroxybenzoic acid [(3aS,5R,6R,7S,7aR)-6,7a-dihydroxy-2,2-dioxo-3a,7-bis[oxo-(3,4,5-trihydroxyphenyl)methoxy]-6,7-dihydro-5H-[1,3,2]dioxathiolo[4,5-b]pyran-5-yl]methyl ester

> <PUBCHEM_IUPAC_NAME_MARKUP>
[(3<I>a</I><I>S</I>,5<I>R</I>,6<I>R</I>,7<I>S</I>,7<I>a</I><I>R</I>)-6,7<I>a</I>-dihydroxy-2,2-dioxo-3<I>a</I>,7-bis[(3,4,5-trihydroxybenzoyl)oxy]-6,7-dihydro-5<I>H</I>-[1,3,2]dioxathiolo[4,5-b]pyran-5-yl]methyl 3,4,5-trihydroxybenzoate

> <PUBCHEM_IUPAC_NAME>
[(3aS,5R,6R,7S,7aR)-6,7a-dihydroxy-2,2-dioxo-3a,7-bis[(3,4,5-trihydroxybenzoyl)oxy]-6,7-dihydro-5H-[1,3,2]dioxathiolo[4,5-b]pyran-5-yl]methyl 3,4,5-trihydroxybenzoate

> <PUBCHEM_IUPAC_SYSTEMATIC_NAME>
[(3aS,5R,6R,7S,7aR)-6,7a-bis(oxidanyl)-2,2-bis(oxidanylidene)-3a,7-bis[[3,4,5-tris(oxidanyl)phenyl]carbonyloxy]-6,7-dihydro-5H-[1,3,2]dioxathiolo[4,5-b]pyran-5-yl]methyl 3,4,5-tris(oxidanyl)benzoate

> <PUBCHEM_IUPAC_TRADITIONAL_NAME>
3,4,5-trihydroxybenzoic acid [(3aS,5R,6R,7S,7aR)-3a,7-digalloyloxy-6,7a-dihydroxy-2,2-diketo-6,7-dihydro-5H-[1,3,2]dioxathiolo[4,5-b]pyran-5-yl]methyl ester

> <PUBCHEM_IUPAC_INCHI>
InChI=1S/C27H22O22S/c28-11-1-8(2-12(29)18(11)34)23(38)44-7-17-21(37)22(45-24(39)9-3-13(30)19(35)14(31)4-9)26(41)27(46-17,49-50(42,43)48-26)47-25(40)10-5-15(32)20(36)16(33)6-10/h1-6,17,21-22,28-37,41H,7H2/t17-,21-,22+,26-,27+/m1/s1

> <PUBCHEM_IUPAC_INCHIKEY>
JMAXDYUQAPUYIT-MEQQWIQZSA-N

> <PUBCHEM_XLOGP3_AA>
-0.6

> <PUBCHEM_EXACT_MASS>
730.032344

> <PUBCHEM_MOLECULAR_FORMULA>
C27H22O22S

> <PUBCHEM_MOLECULAR_WEIGHT>
730.5

> <PUBCHEM_OPENEYE_CAN_SMILES>
C1=C(C=C(C(=C1O)O)O)C(=O)OCC2C(C(C3(C(O2)(OS(=O)(=O)O3)OC(=O)C4=CC(=C(C(=C4)O)O)O)O)OC(=O)C5=CC(=C(C(=C5)O)O)O)O

> <PUBCHEM_OPENEYE_ISO_SMILES>
C1=C(C=C(C(=C1O)O)O)C(=O)OC[C@@H]2[C@H]([C@@H]([C@@]3([C@@](O2)(OS(=O)(=O)O3)OC(=O)C4=CC(=C(C(=C4)O)O)O)O)OC(=O)C5=CC(=C(C(=C5)O)O)O)O

> <PUBCHEM_CACTVS_TPSA>
372

> <PUBCHEM_MONOISOTOPIC_WEIGHT>
730.032344

> <PUBCHEM_TOTAL_CHARGE>
0

> <PUBCHEM_HEAVY_ATOM_COUNT>
50

> <PUBCHEM_ATOM_DEF_STEREO_COUNT>
5

> <PUBCHEM_ATOM_UDEF_STEREO_COUNT>
0

> <PUBCHEM_BOND_DEF_STEREO_COUNT>
0

> <PUBCHEM_BOND_UDEF_STEREO_COUNT>
0

> <PUBCHEM_ISOTOPIC_ATOM_COUNT>
0

> <PUBCHEM_COMPONENT_COUNT>
1

> <PUBCHEM_CACTVS_TAUTO_COUNT>
-1

> <PUBCHEM_COORDINATE_TYPE>
1
5
255

> <PUBCHEM_BONDANNOTATIONS>
28  29  6
32  35  8
32  36  8
33  37  8
33  38  8
35  41  8
36  40  8
37  43  8
38  42  8
39  45  8
39  46  8
40  44  8
41  44  8
42  47  8
43  47  8
45  49  8
46  48  8
48  50  8
49  50  8
25  5  6
24  6  6
26  7  5
27  8  5

$$$$
129636327
  -OEChem-04052116542D

 75 78  0     1  0  0  0  0  0999 V2000
    8.5991    0.2115    0.0000 O   0  0  0  0  0  0  0  0  0  0  0  0
    6.0010    1.7115    0.0000 O   0  0  0  0  0  0  0  0  0  0  0  0
    7.7331    2.7115    0.0000 O   0  0  0  0  0  0  0  0  0  0  0  0
    7.2331   -1.1545    0.0000 O   0  0  0  0  0  0  0  0  0  0  0  0
    8.2331   -1.1545    0.0000 O   0  0  0  0  0  0  0  0  0  0  0  0
    6.0010   -0.2885    0.0000 O   0  0  0  0  0  0  0  0  0  0  0  0
   10.3312    1.2115    0.0000 O   0  0  0  0  0  0  0  0  0  0  0  0
    6.8671    3.2115    0.0000 O   0  0  0  0  0  0  0  0  0  0  0  0
    8.7331   -2.0205    0.0000 O   0  0  0  0  0  0  0  0  0  0  0  0
    9.7331   -0.2885    0.0000 O   0  0  0  0  0  0  0  0  0  0  0  0
   11.1972    2.7115    0.0000 O   0  0  0  0  0  0  0  0  0  0  0  0
    2.5369    2.7115    0.0000 O   0  0  0  0  0  0  0  0  0  0  0  0
    4.2690    5.7115    0.0000 O   0  0  0  0  0  0  0  0  0  0  0  0
    7.7331   -5.4846    0.0000 O   0  0  0  0  0  0  0  0  0  0  0  0
    4.7331   -3.7526    0.0000 O   0  0  0  0  0  0  0  0  0  0  0  0
    2.5369    4.7115    0.0000 O   0  0  0  0  0  0  0  0  0  0  0  0
    5.7331   -5.4846    0.0000 O   0  0  0  0  0  0  0  0  0  0  0  0
   14.6613    1.7115    0.0000 O   0  0  0  0  0  0  0  0  0  0  0  0
   12.9292   -1.2885    0.0000 O   0  0  0  0  0  0  0  0  0  0  0  0
   14.6613   -0.2885    0.0000 O   0  0  0  0  0  0  0  0  0  0  0  0
    6.8671    1.2115    0.0000 C   0  0  1  0  0  0  0  0  0  0  0  0
    7.7331    1.7115    0.0000 C   0  0  1  0  0  0  0  0  0  0  0  0
    6.8671    0.2115    0.0000 C   0  0  2  0  0  0  0  0  0  0  0  0
    8.5991    1.2115    0.0000 C   0  0  1  0  0  0  0  0  0  0  0  0
    7.7331   -0.2885    0.0000 C   0  0  2  0  0  0  0  0  0  0  0  0
    9.4651    1.7115    0.0000 C   0  0  0  0  0  0  0  0  0  0  0  0
    6.0010    2.7115    0.0000 C   0  0  0  0  0  0  0  0  0  0  0  0
    7.7331   -2.0205    0.0000 C   0  0  0  0  0  0  0  0  0  0  0  0
    9.2331   -1.1545    0.0000 C   0  0  0  0  0  0  0  0  0  0  0  0
    5.1350    3.2115    0.0000 C   0  0  0  0  0  0  0  0  0  0  0  0
   11.1972    1.7115    0.0000 C   0  0  0  0  0  0  0  0  0  0  0  0
    7.2331   -2.8865    0.0000 C   0  0  0  0  0  0  0  0  0  0  0  0
    9.7331   -2.0205    0.0000 C   0  0  0  0  0  0  0  0  0  0  0  0
   12.0632    1.2115    0.0000 C   0  0  0  0  0  0  0  0  0  0  0  0
    5.1350    4.2115    0.0000 C   0  0  0  0  0  0  0  0  0  0  0  0
    4.2690    2.7115    0.0000 C   0  0  0  0  0  0  0  0  0  0  0  0
    6.2331   -2.8865    0.0000 C   0  0  0  0  0  0  0  0  0  0  0  0
    7.7331   -3.7526    0.0000 C   0  0  0  0  0  0  0  0  0  0  0  0
    3.4030    3.2115    0.0000 C   0  0  0  0  0  0  0  0  0  0  0  0
    4.2690    4.7115    0.0000 C   0  0  0  0  0  0  0  0  0  0  0  0
   12.0632    0.2115    0.0000 C   0  0  0  0  0  0  0  0  0  0  0  0
   12.9292    1.7115    0.0000 C   0  0  0  0  0  0  0  0  0  0  0  0
    7.2331   -4.6186    0.0000 C   0  0  0  0  0  0  0  0  0  0  0  0
    5.7331   -3.7526    0.0000 C   0  0  0  0  0  0  0  0  0  0  0  0
    3.4030    4.2115    0.0000 C   0  0  0  0  0  0  0  0  0  0  0  0
    6.2331   -4.6186    0.0000 C   0  0  0  0  0  0  0  0  0  0  0  0
   13.7953    1.2115    0.0000 C   0  0  0  0  0  0  0  0  0  0  0  0
   12.9292   -0.2885    0.0000 C   0  0  0  0  0  0  0  0  0  0  0  0
   13.7953    0.2115    0.0000 C   0  0  0  0  0  0  0  0  0  0  0  0
    6.8671    1.8315    0.0000 H   0  0  0  0  0  0  0  0  0  0  0  0
    8.2700    2.0215    0.0000 H   0  0  0  0  0  0  0  0  0  0  0  0
    6.3301    0.5215    0.0000 H   0  0  0  0  0  0  0  0  0  0  0  0
    9.1360    0.9015    0.0000 H   0  0  0  0  0  0  0  0  0  0  0  0
    9.8637    2.1865    0.0000 H   0  0  0  0  0  0  0  0  0  0  0  0
    9.0666    2.1865    0.0000 H   0  0  0  0  0  0  0  0  0  0  0  0
    8.2700    3.0215    0.0000 H   0  0  0  0  0  0  0  0  0  0  0  0
    5.4641    0.0215    0.0000 H   0  0  0  0  0  0  0  0  0  0  0  0
    9.1962   -2.3305    0.0000 H   0  0  0  0  0  0  0  0  0  0  0  0
   10.0431   -2.5574    0.0000 H   0  0  0  0  0  0  0  0  0  0  0  0
   10.2700   -1.7105    0.0000 H   0  0  0  0  0  0  0  0  0  0  0  0
    5.6720    4.5215    0.0000 H   0  0  0  0  0  0  0  0  0  0  0  0
    4.2690    2.0915    0.0000 H   0  0  0  0  0  0  0  0  0  0  0  0
    5.9231   -2.3496    0.0000 H   0  0  0  0  0  0  0  0  0  0  0  0
    8.3531   -3.7526    0.0000 H   0  0  0  0  0  0  0  0  0  0  0  0
   11.5263   -0.0985    0.0000 H   0  0  0  0  0  0  0  0  0  0  0  0
   12.9292    2.3315    0.0000 H   0  0  0  0  0  0  0  0  0  0  0  0
    2.0000    3.0215    0.0000 H   0  0  0  0  0  0  0  0  0  0  0  0
    4.8059    6.0215    0.0000 H   0  0  0  0  0  0  0  0  0  0  0  0
    8.3531   -5.4846    0.0000 H   0  0  0  0  0  0  0  0  0  0  0  0
    4.4231   -4.2895    0.0000 H   0  0  0  0  0  0  0  0  0  0  0  0
    2.5369    5.3315    0.0000 H   0  0  0  0  0  0  0  0  0  0  0  0
    6.0431   -6.0215    0.0000 H   0  0  0  0  0  0  0  0  0  0  0  0
   14.6613    2.3315    0.0000 H   0  0  0  0  0  0  0  0  0  0  0  0
   13.4662   -1.5985    0.0000 H   0  0  0  0  0  0  0  0  0  0  0  0
   15.1982    0.0215    0.0000 H   0  0  0  0  0  0  0  0  0  0  0  0
  1 24  1  0  0  0  0
  1 25  1  0  0  0  0
 21  2  1  1  0  0  0
  2 27  1  0  0  0  0
 22  3  1  6  0  0  0
  3 56  1  0  0  0  0
  4 25  1  0  0  0  0
  4 28  1  0  0  0  0
 25  5  1  6  0  0  0
  5 29  1  0  0  0  0
 23  6  1  6  0  0  0
  6 57  1  0  0  0  0
  7 26  1  0  0  0  0
  7 31  1  0  0  0  0
  8 27  2  0  0  0  0
  9 28  2  0  0  0  0
 10 29  2  0  0  0  0
 11 31  2  0  0  0  0
 12 39  1  0  0  0  0
 12 67  1  0  0  0  0
 13 40  1  0  0  0  0
 13 68  1  0  0  0  0
 14 43  1  0  0  0  0
 14 69  1  0  0  0  0
 15 44  1  0  0  0  0
 15 70  1  0  0  0  0
 16 45  1  0  0  0  0
 16 71  1  0  0  0  0
 17 46  1  0  0  0  0
 17 72  1  0  0  0  0
 18 47  1  0  0  0  0
 18 73  1  0  0  0  0
 19 48  1  0  0  0  0
 19 74  1  0  0  0  0
 20 49  1  0  0  0  0
 20 75  1  0  0  0  0
 21 22  1  0  0  0  0
 21 23  1  0  0  0  0
 21 50  1  0  0  0  0
 22 24  1  0  0  0  0
 22 51  1  0  0  0  0
 23 25  1  0  0  0  0
 23 52  1  0  0  0  0
 24 26  1  1  0  0  0
 24 53  1  0  0  0  0
 26 54  1  0  0  0  0
 26 55  1  0  0  0  0
 27 30  1  0  0  0  0
 28 32  1  0  0  0  0
 29 33  1  0  0  0  0
 30 35  2  0  0  0  0
 30 36  1  0  0  0  0
 31 34  1  0  0  0  0
 32 37  2  0  0  0  0
 32 38  1  0  0  0  0
 33 58  1  0  0  0  0
 33 59  1  0  0  0  0
 33 60  1  0  0  0  0
 34 41  2  0  0  0  0
 34 42  1  0  0  0  0
 35 40  1  0  0  0  0
 35 61  1  0  0  0  0
 36 39  2  0  0  0  0
 36 62  1  0  0  0  0
 37 44  1  0  0  0  0
 37 63  1  0  0  0  0
 38 43  2  0  0  0  0
 38 64  1  0  0  0  0
 39 45  1  0  0  0  0
 40 45  2  0  0  0  0
 41 48  1  0  0  0  0
 41 65  1  0  0  0  0
 42 47  2  0  0  0  0
 42 66  1  0  0  0  0
 43 46  1  0  0  0  0
 44 46  2  0  0  0  0
 47 49  1  0  0  0  0
 48 49  2  0  0  0  0
M  END
> <PUBCHEM_COMPOUND_CID>
129636327

> <PUBCHEM_COMPOUND_CANONICALIZED>
1

> <PUBCHEM_CACTVS_COMPLEXITY>
1160

> <PUBCHEM_CACTVS_HBOND_ACCEPTOR>
20

> <PUBCHEM_CACTVS_HBOND_DONOR>
11

> <PUBCHEM_CACTVS_ROTATABLE_BOND>
12

> <PUBCHEM_CACTVS_SUBSKEYS>
AAADceB4PgAAAAAAAAAAAAAAAAAAAAAAAAA0YMEAAAAAAAABUAAAGgAACAAADBSgmAIyDoAABgCIAiDSCAACAAAkIAAAiAEGiMgZNzKCNRqicQElwBUPuYfK7DzOIAABCAAAQABAAAIQAACAAAAAAAAAAA==

> <PUBCHEM_IUPAC_OPENEYE_NAME>
[(2R,3R,4S,5R,6S)-6-acetoxy-3,5-dihydroxy-4,6-bis[(3,4,5-trihydroxybenzoyl)oxy]tetrahydropyran-2-yl]methyl 3,4,5-trihydroxybenzoate

> <PUBCHEM_IUPAC_CAS_NAME>
3,4,5-trihydroxybenzoic acid [(2R,3R,4S,5R,6S)-6-acetyloxy-3,5-dihydroxy-4,6-bis[oxo-(3,4,5-trihydroxyphenyl)methoxy]-2-oxanyl]methyl ester

> <PUBCHEM_IUPAC_NAME_MARKUP>
[(2<I>R</I>,3<I>R</I>,4<I>S</I>,5<I>R</I>,6<I>S</I>)-6-acetyloxy-3,5-dihydroxy-4,6-bis[(3,4,5-trihydroxybenzoyl)oxy]oxan-2-yl]methyl 3,4,5-trihydroxybenzoate

> <PUBCHEM_IUPAC_NAME>
[(2R,3R,4S,5R,6S)-6-acetyloxy-3,5-dihydroxy-4,6-bis[(3,4,5-trihydroxybenzoyl)oxy]oxan-2-yl]methyl 3,4,5-trihydroxybenzoate

> <PUBCHEM_IUPAC_SYSTEMATIC_NAME>
[(2R,3R,4S,5R,6S)-6-acetyloxy-3,5-bis(oxidanyl)-4,6-bis[[3,4,5-tris(oxidanyl)phenyl]carbonyloxy]oxan-2-yl]methyl 3,4,5-tris(oxidanyl)benzoate

> <PUBCHEM_IUPAC_TRADITIONAL_NAME>
3,4,5-trihydroxybenzoic acid [(2R,3R,4S,5R,6S)-6-acetoxy-4,6-digalloyloxy-3,5-dihydroxy-tetrahydropyran-2-yl]methyl ester

> <PUBCHEM_IUPAC_INCHI>
InChI=1S/C29H26O20/c1-9(30)47-29(49-28(44)12-6-17(35)22(39)18(36)7-12)25(41)24(46-27(43)11-4-15(33)21(38)16(34)5-11)23(40)19(48-29)8-45-26(42)10-2-13(31)20(37)14(32)3-10/h2-7,19,23-25,31-41H,8H2,1H3/t19-,23-,24+,25-,29-/m1/s1

> <PUBCHEM_IUPAC_INCHIKEY>
CJOICVSDMKAPLV-VGWGVAJUSA-N

> <PUBCHEM_XLOGP3_AA>
0.2

> <PUBCHEM_EXACT_MASS>
694.101743

> <PUBCHEM_MOLECULAR_FORMULA>
C29H26O20

> <PUBCHEM_MOLECULAR_WEIGHT>
694.5

> <PUBCHEM_OPENEYE_CAN_SMILES>
CC(=O)OC1(C(C(C(C(O1)COC(=O)C2=CC(=C(C(=C2)O)O)O)O)OC(=O)C3=CC(=C(C(=C3)O)O)O)O)OC(=O)C4=CC(=C(C(=C4)O)O)O

> <PUBCHEM_OPENEYE_ISO_SMILES>
CC(=O)O[C@@]1([C@@H]([C@H]([C@@H]([C@H](O1)COC(=O)C2=CC(=C(C(=C2)O)O)O)O)OC(=O)C3=CC(=C(C(=C3)O)O)O)O)OC(=O)C4=CC(=C(C(=C4)O)O)O

> <PUBCHEM_CACTVS_TPSA>
337

> <PUBCHEM_MONOISOTOPIC_WEIGHT>
694.101743

> <PUBCHEM_TOTAL_CHARGE>
0

> <PUBCHEM_HEAVY_ATOM_COUNT>
49

> <PUBCHEM_ATOM_DEF_STEREO_COUNT>
5

> <PUBCHEM_ATOM_UDEF_STEREO_COUNT>
0

> <PUBCHEM_BOND_DEF_STEREO_COUNT>
0

> <PUBCHEM_BOND_UDEF_STEREO_COUNT>
0

> <PUBCHEM_ISOTOPIC_ATOM_COUNT>
0

> <PUBCHEM_COMPONENT_COUNT>
1

> <PUBCHEM_CACTVS_TAUTO_COUNT>
-1

> <PUBCHEM_COORDINATE_TYPE>
1
5
255

> <PUBCHEM_BONDANNOTATIONS>
21  2  5
24  26  5
22  3  6
30  35  8
30  36  8
32  37  8
32  38  8
34  41  8
34  42  8
35  40  8
36  39  8
37  44  8
38  43  8
39  45  8
40  45  8
41  48  8
42  47  8
43  46  8
44  46  8
47  49  8
48  49  8
25  5  6
23  6  6

$$$$
129396763
  -OEChem-04052116542D

 90 96  0     1  0  0  0  0  0999 V2000
    7.7331   -3.9635    0.0000 O   0  0  0  0  0  0  0  0  0  0  0  0
   12.3658    1.0284    0.0000 O   0  0  0  0  0  0  0  0  0  0  0  0
    9.4651   -3.9635    0.0000 O   0  0  0  0  0  0  0  0  0  0  0  0
    6.0010   -2.9635    0.0000 O   0  0  0  0  0  0  0  0  0  0  0  0
    9.4929   -0.8556    0.0000 O   0  0  0  0  0  0  0  0  0  0  0  0
    6.0010   -5.9635    0.0000 O   0  0  0  0  0  0  0  0  0  0  0  0
    7.7331   -6.9635    0.0000 O   0  0  0  0  0  0  0  0  0  0  0  0
   14.4485    2.7604    0.0000 O   0  0  0  0  0  0  0  0  0  0  0  0
    9.4651   -5.9635    0.0000 O   0  0  0  0  0  0  0  0  0  0  0  0
    4.2690   -2.9635    0.0000 O   0  0  0  0  0  0  0  0  0  0  0  0
    6.0010   -0.9635    0.0000 O   0  0  0  0  0  0  0  0  0  0  0  0
    4.2690    0.0365    0.0000 O   0  0  0  0  0  0  0  0  0  0  0  0
   10.8859    3.6380    0.0000 O   0  0  0  0  0  0  0  0  0  0  0  0
    2.5369   -0.9635    0.0000 O   0  0  0  0  0  0  0  0  0  0  0  0
   12.3680    6.4055    0.0000 O   0  0  0  0  0  0  0  0  0  0  0  0
   14.4596    6.4055    0.0000 O   0  0  0  0  0  0  0  0  0  0  0  0
    6.8671   -4.4635    0.0000 C   0  0  1  0  0  0  0  0  0  0  0  0
    6.8671   -5.4635    0.0000 C   0  0  2  0  0  0  0  0  0  0  0  0
    7.7331   -5.9635    0.0000 C   0  0  1  0  0  0  0  0  0  0  0  0
    8.5991   -5.4635    0.0000 C   0  0  2  0  0  0  0  0  0  0  0  0
    8.5991   -4.4635    0.0000 C   0  0  1  0  0  0  0  0  0  0  0  0
   12.3791    2.7604    0.0000 C   0  0  2  0  0  0  0  0  0  0  0  0
   12.8725    1.8906    0.0000 C   0  0  2  0  0  0  0  0  0  0  0  0
    6.0010   -3.9635    0.0000 C   0  0  0  0  0  0  0  0  0  0  0  0
   10.8520    0.1301    0.0000 C   0  0  0  0  0  0  0  0  0  0  0  0
   10.3312   -1.4635    0.0000 C   0  0  2  0  0  0  0  0  0  0  0  0
   11.1694   -0.8556    0.0000 C   0  0  0  0  0  0  0  0  0  0  0  0
   11.3658    1.0361    0.0000 C   0  0  0  0  0  0  0  0  0  0  0  0
   10.8725    1.9060    0.0000 C   0  0  0  0  0  0  0  0  0  0  0  0
   11.3792    2.7681    0.0000 C   0  0  0  0  0  0  0  0  0  0  0  0
   12.8930    3.6665    0.0000 C   0  0  0  0  0  0  0  0  0  0  0  0
   13.9138    1.8665    0.0000 C   0  0  0  0  0  0  0  0  0  0  0  0
    5.1350   -2.4635    0.0000 C   0  0  2  0  0  0  0  0  0  0  0  0
    5.1350   -1.4635    0.0000 C   0  0  1  0  0  0  0  0  0  0  0  0
    9.8104    0.1301    0.0000 C   0  0  0  0  0  0  0  0  0  0  0  0
    4.2690   -0.9635    0.0000 C   0  0  2  0  0  0  0  0  0  0  0  0
   10.3312   -2.4635    0.0000 C   0  0  0  0  0  0  0  0  0  0  0  0
    9.4651   -2.9635    0.0000 C   0  0  0  0  0  0  0  0  0  0  0  0
    3.4030   -1.4635    0.0000 C   0  0  2  0  0  0  0  0  0  0  0  0
   13.9346    3.6665    0.0000 C   0  0  0  0  0  0  0  0  0  0  0  0
    9.8312    1.9301    0.0000 C   0  0  0  0  0  0  0  0  0  0  0  0
    3.4030   -2.4635    0.0000 C   0  0  0  0  0  0  0  0  0  0  0  0
    9.2965    1.0361    0.0000 C   0  0  0  0  0  0  0  0  0  0  0  0
   12.3361    4.5976    0.0000 C   0  0  0  0  0  0  0  0  0  0  0  0
   14.4915    4.5976    0.0000 C   0  0  0  0  0  0  0  0  0  0  0  0
   12.8713    5.5414    0.0000 C   0  0  0  0  0  0  0  0  0  0  0  0
   11.1972   -2.9635    0.0000 C   0  0  0  0  0  0  0  0  0  0  0  0
   13.9563    5.5414    0.0000 C   0  0  0  0  0  0  0  0  0  0  0  0
   12.8646    7.2735    0.0000 C   0  0  0  0  0  0  0  0  0  0  0  0
   15.4596    6.4017    0.0000 C   0  0  0  0  0  0  0  0  0  0  0  0
    6.8671   -3.8435    0.0000 H   0  0  0  0  0  0  0  0  0  0  0  0
    6.8671   -6.0835    0.0000 H   0  0  0  0  0  0  0  0  0  0  0  0
    7.1962   -6.2735    0.0000 H   0  0  0  0  0  0  0  0  0  0  0  0
    8.5991   -6.0835    0.0000 H   0  0  0  0  0  0  0  0  0  0  0  0
    8.5991   -3.8435    0.0000 H   0  0  0  0  0  0  0  0  0  0  0  0
   11.9541    3.4965    0.0000 H   0  0  0  0  0  0  0  0  0  0  0  0
   13.2861    1.1480    0.0000 H   0  0  0  0  0  0  0  0  0  0  0  0
    5.3905   -3.8558    0.0000 H   0  0  0  0  0  0  0  0  0  0  0  0
    5.7890   -4.5461    0.0000 H   0  0  0  0  0  0  0  0  0  0  0  0
    9.7789   -1.7452    0.0000 H   0  0  0  0  0  0  0  0  0  0  0  0
   11.4786   -1.3929    0.0000 H   0  0  0  0  0  0  0  0  0  0  0  0
   11.7363   -0.6045    0.0000 H   0  0  0  0  0  0  0  0  0  0  0  0
   13.7936    1.2582    0.0000 H   0  0  0  0  0  0  0  0  0  0  0  0
   14.4925    1.6440    0.0000 H   0  0  0  0  0  0  0  0  0  0  0  0
    5.6720   -2.1535    0.0000 H   0  0  0  0  0  0  0  0  0  0  0  0
    5.1350   -0.8435    0.0000 H   0  0  0  0  0  0  0  0  0  0  0  0
    3.7320   -0.6535    0.0000 H   0  0  0  0  0  0  0  0  0  0  0  0
    9.2531   -2.3808    0.0000 H   0  0  0  0  0  0  0  0  0  0  0  0
    8.8546   -3.0711    0.0000 H   0  0  0  0  0  0  0  0  0  0  0  0
    3.4030   -0.8435    0.0000 H   0  0  0  0  0  0  0  0  0  0  0  0
    9.5316    2.4729    0.0000 H   0  0  0  0  0  0  0  0  0  0  0  0
    2.7924   -2.3558    0.0000 H   0  0  0  0  0  0  0  0  0  0  0  0
    3.1909   -3.0461    0.0000 H   0  0  0  0  0  0  0  0  0  0  0  0
    8.6765    1.0433    0.0000 H   0  0  0  0  0  0  0  0  0  0  0  0
    5.4641   -5.6535    0.0000 H   0  0  0  0  0  0  0  0  0  0  0  0
    7.1962   -7.2735    0.0000 H   0  0  0  0  0  0  0  0  0  0  0  0
   10.0021   -5.6535    0.0000 H   0  0  0  0  0  0  0  0  0  0  0  0
   11.7161    4.5905    0.0000 H   0  0  0  0  0  0  0  0  0  0  0  0
   15.1115    4.5905    0.0000 H   0  0  0  0  0  0  0  0  0  0  0  0
   11.1972   -3.5835    0.0000 H   0  0  0  0  0  0  0  0  0  0  0  0
   11.7341   -2.6535    0.0000 H   0  0  0  0  0  0  0  0  0  0  0  0
    6.0010   -0.3435    0.0000 H   0  0  0  0  0  0  0  0  0  0  0  0
    3.7320    0.3465    0.0000 H   0  0  0  0  0  0  0  0  0  0  0  0
    2.0000   -1.2735    0.0000 H   0  0  0  0  0  0  0  0  0  0  0  0
   13.4028    6.9655    0.0000 H   0  0  0  0  0  0  0  0  0  0  0  0
   13.1726    7.8116    0.0000 H   0  0  0  0  0  0  0  0  0  0  0  0
   12.3265    7.5814    0.0000 H   0  0  0  0  0  0  0  0  0  0  0  0
   15.4572    5.7817    0.0000 H   0  0  0  0  0  0  0  0  0  0  0  0
   16.0796    6.3993    0.0000 H   0  0  0  0  0  0  0  0  0  0  0  0
   15.4620    7.0217    0.0000 H   0  0  0  0  0  0  0  0  0  0  0  0
  1 17  1  0  0  0  0
  1 21  1  0  0  0  0
  2 23  1  0  0  0  0
  2 28  1  0  0  0  0
 21  3  1  1  0  0  0
  3 38  1  0  0  0  0
  4 24  1  0  0  0  0
 33  4  1  6  0  0  0
  5 26  1  0  0  0  0
  5 35  1  0  0  0  0
 18  6  1  6  0  0  0
  6 75  1  0  0  0  0
 19  7  1  1  0  0  0
  7 76  1  0  0  0  0
  8 32  1  0  0  0  0
  8 40  1  0  0  0  0
 20  9  1  6  0  0  0
  9 77  1  0  0  0  0
 10 33  1  0  0  0  0
 10 42  1  0  0  0  0
 34 11  1  1  0  0  0
 11 82  1  0  0  0  0
 36 12  1  6  0  0  0
 12 83  1  0  0  0  0
 13 30  2  0  0  0  0
 39 14  1  6  0  0  0
 14 84  1  0  0  0  0
 15 46  1  0  0  0  0
 15 49  1  0  0  0  0
 16 48  1  0  0  0  0
 16 50  1  0  0  0  0
 17 18  1  0  0  0  0
 17 24  1  1  0  0  0
 17 51  1  0  0  0  0
 18 19  1  0  0  0  0
 18 52  1  0  0  0  0
 19 20  1  0  0  0  0
 19 53  1  0  0  0  0
 20 21  1  0  0  0  0
 20 54  1  0  0  0  0
 21 55  1  0  0  0  0
 22 23  1  0  0  0  0
 22 30  1  0  0  0  0
 22 31  1  0  0  0  0
 22 56  1  1  0  0  0
 23 32  1  0  0  0  0
 23 57  1  1  0  0  0
 24 58  1  0  0  0  0
 24 59  1  0  0  0  0
 25 27  1  0  0  0  0
 25 28  1  0  0  0  0
 25 35  2  0  0  0  0
 26 27  1  0  0  0  0
 26 37  1  6  0  0  0
 26 60  1  0  0  0  0
 27 61  1  0  0  0  0
 27 62  1  0  0  0  0
 28 29  2  0  0  0  0
 29 30  1  0  0  0  0
 29 41  1  0  0  0  0
 31 40  1  0  0  0  0
 31 44  2  0  0  0  0
 32 63  1  0  0  0  0
 32 64  1  0  0  0  0
 33 34  1  0  0  0  0
 33 65  1  0  0  0  0
 34 36  1  0  0  0  0
 34 66  1  0  0  0  0
 35 43  1  0  0  0  0
 36 39  1  0  0  0  0
 36 67  1  0  0  0  0
 37 38  1  0  0  0  0
 37 47  2  0  0  0  0
 38 68  1  0  0  0  0
 38 69  1  0  0  0  0
 39 42  1  0  0  0  0
 39 70  1  0  0  0  0
 40 45  2  0  0  0  0
 41 43  2  0  0  0  0
 41 71  1  0  0  0  0
 42 72  1  0  0  0  0
 42 73  1  0  0  0  0
 43 74  1  0  0  0  0
 44 46  1  0  0  0  0
 44 78  1  0  0  0  0
 45 48  1  0  0  0  0
 45 79  1  0  0  0  0
 46 48  2  0  0  0  0
 47 80  1  0  0  0  0
 47 81  1  0  0  0  0
 49 85  1  0  0  0  0
 49 86  1  0  0  0  0
 49 87  1  0  0  0  0
 50 88  1  0  0  0  0
 50 89  1  0  0  0  0
 50 90  1  0  0  0  0
M  END
> <PUBCHEM_COMPOUND_CID>
129396763

> <PUBCHEM_COMPOUND_CANONICALIZED>
1

> <PUBCHEM_CACTVS_COMPLEXITY>
1210

> <PUBCHEM_CACTVS_HBOND_ACCEPTOR>
16

> <PUBCHEM_CACTVS_HBOND_DONOR>
6

> <PUBCHEM_CACTVS_ROTATABLE_BOND>
9

> <PUBCHEM_CACTVS_SUBSKEYS>
AAADcfB8PgAAAAAAAAAAAAAAAAAAASAAAAA0aJEiAAAAAEiRQAAAGgAACAAADRSwmAMyDoAABgCIAqBSAAACCAAkIAAIiAEGiMgdNzaENRqieWKl4BUPqYfK7PzOoQADCAAIQABCAAYQABCAAAAAAAAAAA==

> <PUBCHEM_IUPAC_OPENEYE_NAME>
(1R,6R,13R)-16,17-dimethoxy-6-[1-[[(2R,3R,4S,5S,6R)-3,4,5-trihydroxy-6-[[(2S,3R,4S,5S)-3,4,5-trihydroxytetrahydropyran-2-yl]oxymethyl]tetrahydropyran-2-yl]oxymethyl]vinyl]-2,7,20-trioxapentacyclo[11.8.0.03,11.04,8.014,19]henicosa-3(11),4(8),9,14,16,18-hexaen-12-one

> <PUBCHEM_IUPAC_CAS_NAME>
(1R,6R,13R)-16,17-dimethoxy-6-[3-[[(2R,3R,4S,5S,6R)-3,4,5-trihydroxy-6-[[(2S,3R,4S,5S)-3,4,5-trihydroxy-2-oxanyl]oxymethyl]-2-oxanyl]oxy]prop-1-en-2-yl]-2,7,20-trioxapentacyclo[11.8.0.03,11.04,8.014,19]heneicosa-3(11),4(8),9,14,16,18-hexaen-12-one

> <PUBCHEM_IUPAC_NAME_MARKUP>
(1<I>R</I>,6<I>R</I>,13<I>R</I>)-16,17-dimethoxy-6-[3-[(2<I>R</I>,3<I>R</I>,4<I>S</I>,5<I>S</I>,6<I>R</I>)-3,4,5-trihydroxy-6-[[(2<I>S</I>,3<I>R</I>,4<I>S</I>,5<I>S</I>)-3,4,5-trihydroxyoxan-2-yl]oxymethyl]oxan-2-yl]oxyprop-1-en-2-yl]-2,7,20-trioxapentacyclo[11.8.0.0<SUP>3,11</SUP>.0<SUP>4,8</SUP>.0<SUP>14,19</SUP>]henicosa-3(11),4(8),9,14,16,18-hexaen-12-one

> <PUBCHEM_IUPAC_NAME>
(1R,6R,13R)-16,17-dimethoxy-6-[3-[(2R,3R,4S,5S,6R)-3,4,5-trihydroxy-6-[[(2S,3R,4S,5S)-3,4,5-trihydroxyoxan-2-yl]oxymethyl]oxan-2-yl]oxyprop-1-en-2-yl]-2,7,20-trioxapentacyclo[11.8.0.03,11.04,8.014,19]henicosa-3(11),4(8),9,14,16,18-hexaen-12-one

> <PUBCHEM_IUPAC_SYSTEMATIC_NAME>
(1R,6R,13R)-16,17-dimethoxy-6-[3-[(2R,3R,4S,5S,6R)-3,4,5-tris(oxidanyl)-6-[[(2S,3R,4S,5S)-3,4,5-tris(oxidanyl)oxan-2-yl]oxymethyl]oxan-2-yl]oxyprop-1-en-2-yl]-2,7,20-trioxapentacyclo[11.8.0.03,11.04,8.014,19]henicosa-3(11),4(8),9,14,16,18-hexaen-12-one

> <PUBCHEM_IUPAC_TRADITIONAL_NAME>
(1R,6R,13R)-16,17-dimethoxy-6-[1-[[(2R,3R,4S,5S,6R)-3,4,5-trihydroxy-6-[[(2S,3R,4S,5S)-3,4,5-trihydroxytetrahydropyran-2-yl]oxymethyl]tetrahydropyran-2-yl]oxymethyl]vinyl]-2,7,20-trioxapentacyclo[11.8.0.03,11.04,8.014,19]heneicosa-3(11),4(8),9,14,16,18-hexaen-12-one

> <PUBCHEM_IUPAC_INCHI>
InChI=1S/C34H40O16/c1-13(9-45-34-31(41)29(39)28(38)24(50-34)12-47-33-30(40)27(37)17(35)10-46-33)19-7-16-18(48-19)5-4-14-26(36)25-15-6-21(42-2)22(43-3)8-20(15)44-11-23(25)49-32(14)16/h4-6,8,17,19,23-25,27-31,33-35,37-41H,1,7,9-12H2,2-3H3/t17-,19+,23-,24+,25+,27-,28+,29-,30+,31+,33-,34+/m0/s1

> <PUBCHEM_IUPAC_INCHIKEY>
CMQOKNQYLSMKJC-XKJYGLEUSA-N

> <PUBCHEM_XLOGP3>
-0.8

> <PUBCHEM_EXACT_MASS>
704.231635

> <PUBCHEM_MOLECULAR_FORMULA>
C34H40O16

> <PUBCHEM_MOLECULAR_WEIGHT>
704.7

> <PUBCHEM_OPENEYE_CAN_SMILES>
COC1=C(C=C2C(=C1)C3C(CO2)OC4=C(C3=O)C=CC5=C4CC(O5)C(=C)COC6C(C(C(C(O6)COC7C(C(C(CO7)O)O)O)O)O)O)OC

> <PUBCHEM_OPENEYE_ISO_SMILES>
COC1=C(C=C2C(=C1)[C@@H]3[C@H](CO2)OC4=C(C3=O)C=CC5=C4C[C@@H](O5)C(=C)CO[C@H]6[C@@H]([C@H]([C@@H]([C@H](O6)CO[C@H]7[C@@H]([C@H]([C@H](CO7)O)O)O)O)O)O)OC

> <PUBCHEM_CACTVS_TPSA>
222

> <PUBCHEM_MONOISOTOPIC_WEIGHT>
704.231635

> <PUBCHEM_TOTAL_CHARGE>
0

> <PUBCHEM_HEAVY_ATOM_COUNT>
50

> <PUBCHEM_ATOM_DEF_STEREO_COUNT>
12

> <PUBCHEM_ATOM_UDEF_STEREO_COUNT>
0

> <PUBCHEM_BOND_DEF_STEREO_COUNT>
0

> <PUBCHEM_BOND_UDEF_STEREO_COUNT>
0

> <PUBCHEM_ISOTOPIC_ATOM_COUNT>
0

> <PUBCHEM_COMPONENT_COUNT>
1

> <PUBCHEM_CACTVS_TAUTO_COUNT>
-1

> <PUBCHEM_COORDINATE_TYPE>
1
5
255

> <PUBCHEM_BONDANNOTATIONS>
34  11  5
36  12  6
39  14  6
17  24  5
22  56  5
23  57  5
25  28  8
25  35  8
26  37  6
28  29  8
29  41  8
21  3  5
31  40  8
31  44  8
35  43  8
33  4  6
40  45  8
41  43  8
44  46  8
45  48  8
46  48  8
18  6  6
19  7  5
20  9  6

$$$$
126969019
  -OEChem-04052116542D

 36 37  0     1  0  0  0  0  0999 V2000
    5.1350    0.1550    0.0000 O   0  0  0  0  0  0  0  0  0  0  0  0
    6.8671    0.1550    0.0000 O   0  0  0  0  0  0  0  0  0  0  0  0
    5.1350   -2.8450    0.0000 O   0  0  0  0  0  0  0  0  0  0  0  0
    3.4030   -1.8450    0.0000 O   0  0  0  0  0  0  0  0  0  0  0  0
    6.8671   -1.8450    0.0000 O   0  0  0  0  0  0  0  0  0  0  0  0
    2.5369   -0.3450    0.0000 O   0  0  0  0  0  0  0  0  0  0  0  0
    3.4030    1.1550    0.0000 O   0  0  0  0  0  0  0  0  0  0  0  0
    9.4651    1.6550    0.0000 O   0  0  0  0  0  0  0  0  0  0  0  0
    8.5991    0.1550    0.0000 O   0  0  0  0  0  0  0  0  0  0  0  0
    5.1350   -1.8450    0.0000 C   0  0  3  0  0  0  0  0  0  0  0  0
    4.2690   -1.3450    0.0000 C   0  0  2  0  0  0  0  0  0  0  0  0
    6.0010   -1.3450    0.0000 C   0  0  3  0  0  0  0  0  0  0  0  0
    4.2690   -0.3450    0.0000 C   0  0  3  0  0  0  0  0  0  0  0  0
    6.0010   -0.3450    0.0000 C   0  0  1  0  0  0  0  0  0  0  0  0
    3.4030    0.1550    0.0000 C   0  0  0  0  0  0  0  0  0  0  0  0
    6.8671    1.1550    0.0000 C   0  0  0  0  0  0  0  0  0  0  0  0
    7.7331    1.6550    0.0000 C   0  0  0  0  0  0  0  0  0  0  0  0
    6.0010    1.6550    0.0000 C   0  0  0  0  0  0  0  0  0  0  0  0
    7.7331    2.6550    0.0000 C   0  0  0  0  0  0  0  0  0  0  0  0
    6.0010    2.6550    0.0000 C   0  0  0  0  0  0  0  0  0  0  0  0
    6.8671    3.1550    0.0000 C   0  0  0  0  0  0  0  0  0  0  0  0
    8.5991    1.1550    0.0000 C   0  0  0  0  0  0  0  0  0  0  0  0
    4.5981   -2.1550    0.0000 H   0  0  0  0  0  0  0  0  0  0  0  0
    3.7320   -1.0350    0.0000 H   0  0  0  0  0  0  0  0  0  0  0  0
    6.0010   -1.9650    0.0000 H   0  0  0  0  0  0  0  0  0  0  0  0
    4.2690    0.2750    0.0000 H   0  0  0  0  0  0  0  0  0  0  0  0
    6.0010    0.2750    0.0000 H   0  0  0  0  0  0  0  0  0  0  0  0
    5.6720   -3.1550    0.0000 H   0  0  0  0  0  0  0  0  0  0  0  0
    7.4040   -1.5350    0.0000 H   0  0  0  0  0  0  0  0  0  0  0  0
    3.4030   -2.4650    0.0000 H   0  0  0  0  0  0  0  0  0  0  0  0
    5.4641    1.3450    0.0000 H   0  0  0  0  0  0  0  0  0  0  0  0
    2.0000   -0.0350    0.0000 H   0  0  0  0  0  0  0  0  0  0  0  0
    8.2700    2.9650    0.0000 H   0  0  0  0  0  0  0  0  0  0  0  0
    5.4641    2.9650    0.0000 H   0  0  0  0  0  0  0  0  0  0  0  0
    6.8671    3.7750    0.0000 H   0  0  0  0  0  0  0  0  0  0  0  0
   10.0021    1.3450    0.0000 H   0  0  0  0  0  0  0  0  0  0  0  0
  1 13  1  0  0  0  0
  1 14  1  0  0  0  0
 14  2  1  1  0  0  0
  2 16  1  0  0  0  0
  3 10  1  0  0  0  0
  3 28  1  0  0  0  0
 11  4  1  1  0  0  0
  4 30  1  0  0  0  0
  5 12  1  0  0  0  0
  5 29  1  0  0  0  0
  6 15  1  0  0  0  0
  6 32  1  0  0  0  0
  7 15  2  0  0  0  0
  8 22  1  0  0  0  0
  8 36  1  0  0  0  0
  9 22  2  0  0  0  0
 10 11  1  0  0  0  0
 10 12  1  0  0  0  0
 10 23  1  0  0  0  0
 11 13  1  0  0  0  0
 11 24  1  0  0  0  0
 12 14  1  0  0  0  0
 12 25  1  0  0  0  0
 13 15  1  0  0  0  0
 13 26  1  0  0  0  0
 14 27  1  0  0  0  0
 16 17  1  0  0  0  0
 16 18  2  0  0  0  0
 17 19  2  0  0  0  0
 17 22  1  0  0  0  0
 18 20  1  0  0  0  0
 18 31  1  0  0  0  0
 19 21  1  0  0  0  0
 19 33  1  0  0  0  0
 20 21  2  0  0  0  0
 20 34  1  0  0  0  0
 21 35  1  0  0  0  0
M  END
> <PUBCHEM_COMPOUND_CID>
126969019

> <PUBCHEM_COMPOUND_CANONICALIZED>
1

> <PUBCHEM_CACTVS_COMPLEXITY>
426

> <PUBCHEM_CACTVS_HBOND_ACCEPTOR>
9

> <PUBCHEM_CACTVS_HBOND_DONOR>
5

> <PUBCHEM_CACTVS_ROTATABLE_BOND>
4

> <PUBCHEM_CACTVS_SUBSKEYS>
AAADccBwPAAAAAAAAAAAAAAAAAAAAAAAAAA0QAAAAAAAAAABAAAAGgAACAAADBSwmAMwDoAABgCIAiDSCAICCAAkIAAIiAFGCMgdNzaENR6ieWCl4BEPuYfK7CzOAAAAAAAIAAAAAAAAABAAAAAAAAAAAA==

> <PUBCHEM_IUPAC_OPENEYE_NAME>
(3R,6S)-6-(2-carboxyphenoxy)-3,4,5-trihydroxy-tetrahydropyran-2-carboxylic acid

> <PUBCHEM_IUPAC_CAS_NAME>
(3R,6S)-6-(2-carboxyphenoxy)-3,4,5-trihydroxy-2-oxanecarboxylic acid

> <PUBCHEM_IUPAC_NAME_MARKUP>
(3<I>R</I>,6<I>S</I>)-6-(2-carboxyphenoxy)-3,4,5-trihydroxyoxane-2-carboxylic acid

> <PUBCHEM_IUPAC_NAME>
(3R,6S)-6-(2-carboxyphenoxy)-3,4,5-trihydroxyoxane-2-carboxylic acid

> <PUBCHEM_IUPAC_SYSTEMATIC_NAME>
(3R,6S)-6-(2-carboxyphenoxy)-3,4,5-tris(oxidanyl)oxane-2-carboxylic acid

> <PUBCHEM_IUPAC_TRADITIONAL_NAME>
(3R,6S)-6-(2-carboxyphenoxy)-3,4,5-trihydroxy-tetrahydropyran-2-carboxylic acid

> <PUBCHEM_IUPAC_INCHI>
InChI=1S/C13H14O9/c14-7-8(15)10(12(19)20)22-13(9(7)16)21-6-4-2-1-3-5(6)11(17)18/h1-4,7-10,13-16H,(H,17,18)(H,19,20)/t7?,8-,9?,10?,13-/m1/s1

> <PUBCHEM_IUPAC_INCHIKEY>
JSCWDKKMLIQCMR-DDHYGPAISA-N

> <PUBCHEM_XLOGP3_AA>
-0.5

> <PUBCHEM_EXACT_MASS>
314.063782

> <PUBCHEM_MOLECULAR_FORMULA>
C13H14O9

> <PUBCHEM_MOLECULAR_WEIGHT>
314.24

> <PUBCHEM_OPENEYE_CAN_SMILES>
C1=CC=C(C(=C1)C(=O)O)OC2C(C(C(C(O2)C(=O)O)O)O)O

> <PUBCHEM_OPENEYE_ISO_SMILES>
C1=CC=C(C(=C1)C(=O)O)O[C@H]2C(C([C@H](C(O2)C(=O)O)O)O)O

> <PUBCHEM_CACTVS_TPSA>
154

> <PUBCHEM_MONOISOTOPIC_WEIGHT>
314.063782

> <PUBCHEM_TOTAL_CHARGE>
0

> <PUBCHEM_HEAVY_ATOM_COUNT>
22

> <PUBCHEM_ATOM_DEF_STEREO_COUNT>
2

> <PUBCHEM_ATOM_UDEF_STEREO_COUNT>
3

> <PUBCHEM_BOND_DEF_STEREO_COUNT>
0

> <PUBCHEM_BOND_UDEF_STEREO_COUNT>
0

> <PUBCHEM_ISOTOPIC_ATOM_COUNT>
0

> <PUBCHEM_COMPONENT_COUNT>
1

> <PUBCHEM_CACTVS_TAUTO_COUNT>
-1

> <PUBCHEM_COORDINATE_TYPE>
1
5
255

> <PUBCHEM_BONDANNOTATIONS>
13  15  3
16  17  8
16  18  8
17  19  8
18  20  8
19  21  8
14  2  5
20  21  8
10  3  3
11  4  5
12  5  3

$$$$
126968703
  -OEChem-04052116542D

 64 66  0     1  0  0  0  0  0999 V2000
    7.0738   -0.4479    0.0000 O   0  0  0  0  0  0  0  0  0  0  0  0
    8.8059   -0.4479    0.0000 O   0  0  0  0  0  0  0  0  0  0  0  0
    7.0738   -3.4479    0.0000 O   0  0  0  0  0  0  0  0  0  0  0  0
    5.3418   -2.4479    0.0000 O   0  0  0  0  0  0  0  0  0  0  0  0
    8.8059   -2.4479    0.0000 O   0  0  0  0  0  0  0  0  0  0  0  0
    4.4757   -0.9479    0.0000 O   0  0  0  0  0  0  0  0  0  0  0  0
   11.2017    1.5521    0.0000 O   0  0  0  0  0  0  0  0  0  0  0  0
    7.2970    2.8182    0.0000 O   0  0  0  0  0  0  0  0  0  0  0  0
   10.9288   -0.2031    0.0000 O   0  0  0  0  0  0  0  0  0  0  0  0
    2.6106    0.8070    0.0000 O   0  0  0  0  0  0  0  0  0  0  0  0
    2.9114    2.5128    0.0000 O   0  0  0  0  0  0  0  0  0  0  0  0
    7.0738   -2.4479    0.0000 C   0  0  1  0  0  0  0  0  0  0  0  0
    6.2078   -1.9479    0.0000 C   0  0  2  0  0  0  0  0  0  0  0  0
    7.9398   -1.9479    0.0000 C   0  0  3  0  0  0  0  0  0  0  0  0
    6.2078   -0.9479    0.0000 C   0  0  3  0  0  0  0  0  0  0  0  0
    7.9398   -0.9479    0.0000 C   0  0  1  0  0  0  0  0  0  0  0  0
    5.3418   -0.4479    0.0000 C   0  0  0  0  0  0  0  0  0  0  0  0
    8.8059    0.5521    0.0000 C   0  0  0  0  0  0  0  0  0  0  0  0
    9.6719    1.0521    0.0000 C   0  0  0  0  0  0  0  0  0  0  0  0
    7.9398    1.0521    0.0000 C   0  0  0  0  0  0  0  0  0  0  0  0
    9.6719    2.0521    0.0000 C   0  0  0  0  0  0  0  0  0  0  0  0
    8.8059    2.5521    0.0000 C   0  0  0  0  0  0  0  0  0  0  0  0
    7.9398    2.0521    0.0000 C   0  0  0  0  0  0  0  0  0  0  0  0
    7.0738    0.5521    0.0000 C   0  0  0  0  0  0  0  0  0  0  0  0
   10.6181    2.3569    0.0000 C   0  0  0  0  0  0  0  0  0  0  0  0
   10.6181    0.7474    0.0000 C   0  0  0  0  0  0  0  0  0  0  0  0
    8.8059    3.5521    0.0000 C   0  0  0  0  0  0  0  0  0  0  0  0
    6.2078    1.0521    0.0000 C   0  0  0  0  0  0  0  0  0  0  0  0
    5.8658    1.9918    0.0000 C   0  0  0  0  0  0  0  0  0  0  0  0
    4.8810    2.1655    0.0000 C   0  0  0  0  0  0  0  0  0  0  0  0
    7.6391    3.7579    0.0000 C   0  0  0  0  0  0  0  0  0  0  0  0
    6.5086    2.7579    0.0000 C   0  0  0  0  0  0  0  0  0  0  0  0
    4.2382    1.3994    0.0000 C   0  0  0  0  0  0  0  0  0  0  0  0
    3.2534    1.5731    0.0000 C   0  0  0  0  0  0  0  0  0  0  0  0
    6.5369   -2.7579    0.0000 H   0  0  0  0  0  0  0  0  0  0  0  0
    6.2078   -2.5679    0.0000 H   0  0  0  0  0  0  0  0  0  0  0  0
    7.9398   -2.5679    0.0000 H   0  0  0  0  0  0  0  0  0  0  0  0
    6.2078   -0.3279    0.0000 H   0  0  0  0  0  0  0  0  0  0  0  0
    7.9398   -0.3279    0.0000 H   0  0  0  0  0  0  0  0  0  0  0  0
    5.7403    0.0271    0.0000 H   0  0  0  0  0  0  0  0  0  0  0  0
    4.9432    0.0271    0.0000 H   0  0  0  0  0  0  0  0  0  0  0  0
    6.5369   -3.7579    0.0000 H   0  0  0  0  0  0  0  0  0  0  0  0
    5.3418   -3.0679    0.0000 H   0  0  0  0  0  0  0  0  0  0  0  0
    8.8059   -3.0679    0.0000 H   0  0  0  0  0  0  0  0  0  0  0  0
    6.6753    0.0772    0.0000 H   0  0  0  0  0  0  0  0  0  0  0  0
    7.4724    0.0772    0.0000 H   0  0  0  0  0  0  0  0  0  0  0  0
   11.1555    2.6661    0.0000 H   0  0  0  0  0  0  0  0  0  0  0  0
   10.3671    2.9238    0.0000 H   0  0  0  0  0  0  0  0  0  0  0  0
    3.9388   -0.6379    0.0000 H   0  0  0  0  0  0  0  0  0  0  0  0
    9.4259    3.5521    0.0000 H   0  0  0  0  0  0  0  0  0  0  0  0
    8.8059    4.1721    0.0000 H   0  0  0  0  0  0  0  0  0  0  0  0
    8.1859    3.5521    0.0000 H   0  0  0  0  0  0  0  0  0  0  0  0
    5.7328    0.6536    0.0000 H   0  0  0  0  0  0  0  0  0  0  0  0
    5.0930    2.7481    0.0000 H   0  0  0  0  0  0  0  0  0  0  0  0
    4.3440    2.4755    0.0000 H   0  0  0  0  0  0  0  0  0  0  0  0
    8.2217    3.5458    0.0000 H   0  0  0  0  0  0  0  0  0  0  0  0
    7.8511    4.3405    0.0000 H   0  0  0  0  0  0  0  0  0  0  0  0
    7.0565    3.9699    0.0000 H   0  0  0  0  0  0  0  0  0  0  0  0
    6.9835    2.3593    0.0000 H   0  0  0  0  0  0  0  0  0  0  0  0
    6.9071    3.2328    0.0000 H   0  0  0  0  0  0  0  0  0  0  0  0
    6.0336    3.1564    0.0000 H   0  0  0  0  0  0  0  0  0  0  0  0
    4.0261    0.8168    0.0000 H   0  0  0  0  0  0  0  0  0  0  0  0
    4.7751    1.0894    0.0000 H   0  0  0  0  0  0  0  0  0  0  0  0
    2.0000    0.9147    0.0000 H   0  0  0  0  0  0  0  0  0  0  0  0
  1 15  1  0  0  0  0
  1 16  1  0  0  0  0
 16  2  1  1  0  0  0
  2 18  1  0  0  0  0
 12  3  1  1  0  0  0
  3 42  1  0  0  0  0
 13  4  1  1  0  0  0
  4 43  1  0  0  0  0
  5 14  1  0  0  0  0
  5 44  1  0  0  0  0
  6 17  1  0  0  0  0
  6 49  1  0  0  0  0
  7 25  1  0  0  0  0
  7 26  1  0  0  0  0
  8 23  1  0  0  0  0
  8 31  1  0  0  0  0
  9 26  2  0  0  0  0
 10 34  1  0  0  0  0
 10 64  1  0  0  0  0
 11 34  2  0  0  0  0
 12 13  1  0  0  0  0
 12 14  1  0  0  0  0
 12 35  1  0  0  0  0
 13 15  1  0  0  0  0
 13 36  1  0  0  0  0
 14 16  1  0  0  0  0
 14 37  1  0  0  0  0
 15 17  1  0  0  0  0
 15 38  1  0  0  0  0
 16 39  1  0  0  0  0
 17 40  1  0  0  0  0
 17 41  1  0  0  0  0
 18 19  2  0  0  0  0
 18 20  1  0  0  0  0
 19 21  1  0  0  0  0
 19 26  1  0  0  0  0
 20 23  2  0  0  0  0
 20 24  1  0  0  0  0
 21 22  2  0  0  0  0
 21 25  1  0  0  0  0
 22 23  1  0  0  0  0
 22 27  1  0  0  0  0
 24 28  1  0  0  0  0
 24 45  1  0  0  0  0
 24 46  1  0  0  0  0
 25 47  1  0  0  0  0
 25 48  1  0  0  0  0
 27 50  1  0  0  0  0
 27 51  1  0  0  0  0
 27 52  1  0  0  0  0
 28 29  2  3  0  0  0
 28 53  1  0  0  0  0
 29 30  1  0  0  0  0
 29 32  1  0  0  0  0
 30 33  1  0  0  0  0
 30 54  1  0  0  0  0
 30 55  1  0  0  0  0
 31 56  1  0  0  0  0
 31 57  1  0  0  0  0
 31 58  1  0  0  0  0
 32 59  1  0  0  0  0
 32 60  1  0  0  0  0
 32 61  1  0  0  0  0
 33 34  1  0  0  0  0
 33 62  1  0  0  0  0
 33 63  1  0  0  0  0
M  END
> <PUBCHEM_COMPOUND_CID>
126968703

> <PUBCHEM_COMPOUND_CANONICALIZED>
1

> <PUBCHEM_CACTVS_COMPLEXITY>
755

> <PUBCHEM_CACTVS_HBOND_ACCEPTOR>
11

> <PUBCHEM_CACTVS_HBOND_DONOR>
5

> <PUBCHEM_CACTVS_ROTATABLE_BOND>
9

> <PUBCHEM_CACTVS_SUBSKEYS>
AAADceB4PAAAAAAAAAAAAAAAAAAAASAAAAA0QAAAAAAAAEgBAAAAGgAACAAADBSwmAMCDoAABgCIAiDSCAACCAAkIAAAiAEECMgdNzaENRqieWCl4BUPqQfK7PzO4AADCAAYAADAAAYQADAAAAAAAAAAAA==

> <PUBCHEM_IUPAC_OPENEYE_NAME>
6-[6-methoxy-7-methyl-3-oxo-4-[(2S,4S,5R)-3,4,5-trihydroxy-6-(hydroxymethyl)tetrahydropyran-2-yl]oxy-1H-isobenzofuran-5-yl]-4-methyl-hex-4-enoic acid

> <PUBCHEM_IUPAC_CAS_NAME>
6-[6-methoxy-7-methyl-3-oxo-4-[[(2S,4S,5R)-3,4,5-trihydroxy-6-(hydroxymethyl)-2-oxanyl]oxy]-1H-isobenzofuran-5-yl]-4-methyl-4-hexenoic acid

> <PUBCHEM_IUPAC_NAME_MARKUP>
6-[6-methoxy-7-methyl-3-oxo-4-[(2<I>S</I>,4<I>S</I>,5<I>R</I>)-3,4,5-trihydroxy-6-(hydroxymethyl)oxan-2-yl]oxy-1<I>H</I>-2-benzofuran-5-yl]-4-methylhex-4-enoic acid

> <PUBCHEM_IUPAC_NAME>
6-[6-methoxy-7-methyl-3-oxo-4-[(2S,4S,5R)-3,4,5-trihydroxy-6-(hydroxymethyl)oxan-2-yl]oxy-1H-2-benzofuran-5-yl]-4-methylhex-4-enoic acid

> <PUBCHEM_IUPAC_SYSTEMATIC_NAME>
6-[4-[(2S,4S,5R)-6-(hydroxymethyl)-3,4,5-tris(oxidanyl)oxan-2-yl]oxy-6-methoxy-7-methyl-3-oxidanylidene-1H-2-benzofuran-5-yl]-4-methyl-hex-4-enoic acid

> <PUBCHEM_IUPAC_TRADITIONAL_NAME>
6-[3-keto-6-methoxy-7-methyl-4-[(2S,4S,5R)-3,4,5-trihydroxy-6-methylol-tetrahydropyran-2-yl]oxy-phthalan-5-yl]-4-methyl-hex-4-enoic acid

> <PUBCHEM_IUPAC_INCHI>
InChI=1S/C23H30O11/c1-10(5-7-15(25)26)4-6-12-20(31-3)11(2)13-9-32-22(30)16(13)21(12)34-23-19(29)18(28)17(27)14(8-24)33-23/h4,14,17-19,23-24,27-29H,5-9H2,1-3H3,(H,25,26)/t14?,17-,18-,19?,23-/m0/s1

> <PUBCHEM_IUPAC_INCHIKEY>
PXWZKGRCFSHAMN-AVLFTPFBSA-N

> <PUBCHEM_XLOGP3_AA>
0.8

> <PUBCHEM_EXACT_MASS>
482.178812

> <PUBCHEM_MOLECULAR_FORMULA>
C23H30O11

> <PUBCHEM_MOLECULAR_WEIGHT>
482.5

> <PUBCHEM_OPENEYE_CAN_SMILES>
CC1=C2COC(=O)C2=C(C(=C1OC)CC=C(C)CCC(=O)O)OC3C(C(C(C(O3)CO)O)O)O

> <PUBCHEM_OPENEYE_ISO_SMILES>
CC1=C2COC(=O)C2=C(C(=C1OC)CC=C(C)CCC(=O)O)O[C@H]3C([C@H]([C@H](C(O3)CO)O)O)O

> <PUBCHEM_CACTVS_TPSA>
172

> <PUBCHEM_MONOISOTOPIC_WEIGHT>
482.178812

> <PUBCHEM_TOTAL_CHARGE>
0

> <PUBCHEM_HEAVY_ATOM_COUNT>
34

> <PUBCHEM_ATOM_DEF_STEREO_COUNT>
3

> <PUBCHEM_ATOM_UDEF_STEREO_COUNT>
2

> <PUBCHEM_BOND_DEF_STEREO_COUNT>
0

> <PUBCHEM_BOND_UDEF_STEREO_COUNT>
1

> <PUBCHEM_ISOTOPIC_ATOM_COUNT>
0

> <PUBCHEM_COMPONENT_COUNT>
1

> <PUBCHEM_CACTVS_TAUTO_COUNT>
-1

> <PUBCHEM_COORDINATE_TYPE>
1
5
255

> <PUBCHEM_BONDANNOTATIONS>
15  17  3
18  19  8
18  20  8
19  21  8
16  2  5
20  23  8
21  22  8
22  23  8
28  29  1
12  3  5
13  4  5
14  5  3

$$$$
124220626
  -OEChem-04052116542D

 48 48  0     0  0  0  0  0  0999 V2000
    5.3429    2.6200    0.0000 O   0  0  0  0  0  0  0  0  0  0  0  0
    5.0744    7.3600    0.0000 O   0  0  0  0  0  0  0  0  0  0  0  0
    1.4030    3.3350    0.0000 O   0  0  0  0  0  0  0  0  0  0  0  0
    7.9409    4.1200    0.0000 O   0  0  0  0  0  0  0  0  0  0  0  0
    7.6725   10.8600    0.0000 O   0  0  0  0  0  0  0  0  0  0  0  0
    2.2690    7.8350    0.0000 O   0  0  0  0  0  0  0  0  0  0  0  0
    6.2089    4.1200    0.0000 O   0  0  0  0  0  0  0  0  0  0  0  0
    5.9404   10.8600    0.0000 O   0  0  0  0  0  0  0  0  0  0  0  0
    0.5369    7.8350    0.0000 O   0  0  0  0  0  0  0  0  0  0  0  0
    7.0749    2.6200    0.0000 C   0  0  0  0  0  0  0  0  0  0  0  0
    6.8064    9.3600    0.0000 C   0  0  0  0  0  0  0  0  0  0  0  0
    1.4030    6.3350    0.0000 C   0  0  0  0  0  0  0  0  0  0  0  0
    6.2089    2.1200    0.0000 C   0  0  0  0  0  0  0  0  0  0  0  0
    7.9409    2.1200    0.0000 C   0  0  0  0  0  0  0  0  0  0  0  0
    5.9404    8.8600    0.0000 C   0  0  0  0  0  0  0  0  0  0  0  0
    7.6725    8.8600    0.0000 C   0  0  0  0  0  0  0  0  0  0  0  0
    2.2690    5.8350    0.0000 C   0  0  0  0  0  0  0  0  0  0  0  0
    0.5369    5.8350    0.0000 C   0  0  0  0  0  0  0  0  0  0  0  0
    5.9404    7.8600    0.0000 C   0  0  0  0  0  0  0  0  0  0  0  0
    6.2089    1.1200    0.0000 C   0  0  0  0  0  0  0  0  0  0  0  0
    1.4030    4.3350    0.0000 C   0  0  0  0  0  0  0  0  0  0  0  0
    2.2690    4.8350    0.0000 C   0  0  0  0  0  0  0  0  0  0  0  0
    0.5369    4.8350    0.0000 C   0  0  0  0  0  0  0  0  0  0  0  0
    7.9409    1.1200    0.0000 C   0  0  0  0  0  0  0  0  0  0  0  0
    7.6725    7.8600    0.0000 C   0  0  0  0  0  0  0  0  0  0  0  0
    6.8064    7.3600    0.0000 C   0  0  0  0  0  0  0  0  0  0  0  0
    7.0749    0.6200    0.0000 C   0  0  0  0  0  0  0  0  0  0  0  0
    7.0749    3.6200    0.0000 C   0  0  0  0  0  0  0  0  0  0  0  0
    6.8064   10.3600    0.0000 C   0  0  0  0  0  0  0  0  0  0  0  0
    1.4030    7.3350    0.0000 C   0  0  0  0  0  0  0  0  0  0  0  0
    8.4779    2.4300    0.0000 H   0  0  0  0  0  0  0  0  0  0  0  0
    5.4035    9.1700    0.0000 H   0  0  0  0  0  0  0  0  0  0  0  0
    2.8059    6.1450    0.0000 H   0  0  0  0  0  0  0  0  0  0  0  0
    0.0000    6.1450    0.0000 H   0  0  0  0  0  0  0  0  0  0  0  0
    8.2094    9.1700    0.0000 H   0  0  0  0  0  0  0  0  0  0  0  0
    5.6720    0.8100    0.0000 H   0  0  0  0  0  0  0  0  0  0  0  0
    2.8059    4.5250    0.0000 H   0  0  0  0  0  0  0  0  0  0  0  0
    0.0000    4.5250    0.0000 H   0  0  0  0  0  0  0  0  0  0  0  0
    8.4779    0.8100    0.0000 H   0  0  0  0  0  0  0  0  0  0  0  0
    8.2094    7.5500    0.0000 H   0  0  0  0  0  0  0  0  0  0  0  0
    6.8064    6.7400    0.0000 H   0  0  0  0  0  0  0  0  0  0  0  0
    7.0749    0.0000    0.0000 H   0  0  0  0  0  0  0  0  0  0  0  0
    4.8059    2.3100    0.0000 H   0  0  0  0  0  0  0  0  0  0  0  0
    5.0744    6.7400    0.0000 H   0  0  0  0  0  0  0  0  0  0  0  0
    0.8660    3.0250    0.0000 H   0  0  0  0  0  0  0  0  0  0  0  0
    7.9409    4.7400    0.0000 H   0  0  0  0  0  0  0  0  0  0  0  0
    7.6725   11.4800    0.0000 H   0  0  0  0  0  0  0  0  0  0  0  0
    2.2690    8.4550    0.0000 H   0  0  0  0  0  0  0  0  0  0  0  0
  1 13  1  0  0  0  0
  1 43  1  0  0  0  0
  2 19  1  0  0  0  0
  2 44  1  0  0  0  0
  3 21  1  0  0  0  0
  3 45  1  0  0  0  0
  4 28  1  0  0  0  0
  4 46  1  0  0  0  0
  5 29  1  0  0  0  0
  5 47  1  0  0  0  0
  6 30  1  0  0  0  0
  6 48  1  0  0  0  0
  7 28  2  0  0  0  0
  8 29  2  0  0  0  0
  9 30  2  0  0  0  0
 10 13  1  0  0  0  0
 10 14  2  0  0  0  0
 10 28  1  0  0  0  0
 11 15  2  0  0  0  0
 11 16  1  0  0  0  0
 11 29  1  0  0  0  0
 12 17  2  0  0  0  0
 12 18  1  0  0  0  0
 12 30  1  0  0  0  0
 13 20  2  0  0  0  0
 14 24  1  0  0  0  0
 14 31  1  0  0  0  0
 15 19  1  0  0  0  0
 15 32  1  0  0  0  0
 16 25  2  0  0  0  0
 16 35  1  0  0  0  0
 17 22  1  0  0  0  0
 17 33  1  0  0  0  0
 18 23  2  0  0  0  0
 18 34  1  0  0  0  0
 19 26  2  0  0  0  0
 20 27  1  0  0  0  0
 20 36  1  0  0  0  0
 21 22  2  0  0  0  0
 21 23  1  0  0  0  0
 22 37  1  0  0  0  0
 23 38  1  0  0  0  0
 24 27  2  0  0  0  0
 24 39  1  0  0  0  0
 25 26  1  0  0  0  0
 25 40  1  0  0  0  0
 26 41  1  0  0  0  0
 27 42  1  0  0  0  0
M  END
> <PUBCHEM_COMPOUND_CID>
124220626

> <PUBCHEM_COMPOUND_CANONICALIZED>
1

> <PUBCHEM_CACTVS_COMPLEXITY>
390

> <PUBCHEM_CACTVS_HBOND_ACCEPTOR>
9

> <PUBCHEM_CACTVS_HBOND_DONOR>
6

> <PUBCHEM_CACTVS_ROTATABLE_BOND>
3

> <PUBCHEM_CACTVS_SUBSKEYS>
AAADceB4PAAAAAAAAAAAAAAAAAAAAAAAAAAwYMAAAAAAAAABUAAAGgAACAAADASAmAAwDoAAAgCIAiDSCAACAAAkIAAIiAEGCMgIJzaCFRKAcUAl4BEImYfK7DTOIAABAAAIAABAAAIAABAAAAAAAAAAAA==

> <PUBCHEM_IUPAC_OPENEYE_NAME>
2-hydroxybenzoic acid;3-hydroxybenzoic acid;4-hydroxybenzoic acid

> <PUBCHEM_IUPAC_CAS_NAME>
2-hydroxybenzoic acid;3-hydroxybenzoic acid;4-hydroxybenzoic acid

> <PUBCHEM_IUPAC_NAME_MARKUP>
2-hydroxybenzoic acid;3-hydroxybenzoic acid;4-hydroxybenzoic acid

> <PUBCHEM_IUPAC_NAME>
2-hydroxybenzoic acid;3-hydroxybenzoic acid;4-hydroxybenzoic acid

> <PUBCHEM_IUPAC_SYSTEMATIC_NAME>
2-oxidanylbenzoic acid;3-oxidanylbenzoic acid;4-oxidanylbenzoic acid

> <PUBCHEM_IUPAC_TRADITIONAL_NAME>
3-hydroxybenzoic acid;4-hydroxybenzoic acid;salicylic acid

> <PUBCHEM_IUPAC_INCHI>
InChI=1S/3C7H6O3/c8-6-3-1-5(2-4-6)7(9)10;8-6-3-1-2-5(4-6)7(9)10;8-6-4-2-1-3-5(6)7(9)10/h3*1-4,8H,(H,9,10)

> <PUBCHEM_IUPAC_INCHIKEY>
DZUZDKDDHMPPKK-UHFFFAOYSA-N

> <PUBCHEM_EXACT_MASS>
414.095082

> <PUBCHEM_MOLECULAR_FORMULA>
C21H18O9

> <PUBCHEM_MOLECULAR_WEIGHT>
414.4

> <PUBCHEM_OPENEYE_CAN_SMILES>
C1=CC=C(C(=C1)C(=O)O)O.C1=CC(=CC(=C1)O)C(=O)O.C1=CC(=CC=C1C(=O)O)O

> <PUBCHEM_OPENEYE_ISO_SMILES>
C1=CC=C(C(=C1)C(=O)O)O.C1=CC(=CC(=C1)O)C(=O)O.C1=CC(=CC=C1C(=O)O)O

> <PUBCHEM_CACTVS_TPSA>
173

> <PUBCHEM_MONOISOTOPIC_WEIGHT>
414.095082

> <PUBCHEM_TOTAL_CHARGE>
0

> <PUBCHEM_HEAVY_ATOM_COUNT>
30

> <PUBCHEM_ATOM_DEF_STEREO_COUNT>
0

> <PUBCHEM_ATOM_UDEF_STEREO_COUNT>
0

> <PUBCHEM_BOND_DEF_STEREO_COUNT>
0

> <PUBCHEM_BOND_UDEF_STEREO_COUNT>
0

> <PUBCHEM_ISOTOPIC_ATOM_COUNT>
0

> <PUBCHEM_COMPONENT_COUNT>
3

> <PUBCHEM_CACTVS_TAUTO_COUNT>
-1

> <PUBCHEM_COORDINATE_TYPE>
1
5
255

> <PUBCHEM_BONDANNOTATIONS>
10  13  8
10  14  8
11  15  8
11  16  8
12  17  8
12  18  8
13  20  8
14  24  8
15  19  8
16  25  8
17  22  8
18  23  8
19  26  8
20  27  8
21  22  8
21  23  8
24  27  8
25  26  8

$$$$
122173182
  -OEChem-04052116542D

 69 74  0     1  0  0  0  0  0999 V2000
    7.4343    0.9149    0.0000 O   0  0  0  0  0  0  0  0  0  0  0  0
    6.0682    1.2809    0.0000 O   0  0  0  0  0  0  0  0  0  0  0  0
    7.8532   -1.6975    0.0000 O   0  0  0  0  0  0  0  0  0  0  0  0
    7.8003    3.2809    0.0000 O   0  0  0  0  0  0  0  0  0  0  0  0
    6.0682    4.2809    0.0000 O   0  0  0  0  0  0  0  0  0  0  0  0
    4.3198    4.3155    0.0000 O   0  0  0  0  0  0  0  0  0  0  0  0
    4.4047   -1.0865    0.0000 O   0  0  0  0  0  0  0  0  0  0  0  0
    2.5381    1.2568    0.0000 O   0  0  0  0  0  0  0  0  0  0  0  0
    9.9343    3.5130    0.0000 O   0  0  0  0  0  0  0  0  0  0  0  0
    5.6027   -4.4174    0.0000 O   0  0  0  0  0  0  0  0  0  0  0  0
   10.9343    1.7809    0.0000 O   0  0  0  0  0  0  0  0  0  0  0  0
   10.6806   -2.9391    0.0000 O   0  0  0  0  0  0  0  0  0  0  0  0
   11.9661   -1.4069    0.0000 O   0  0  0  0  0  0  0  0  0  0  0  0
    6.9343    1.7809    0.0000 C   0  0  2  0  0  0  0  0  0  0  0  0
    7.2607   -0.0699    0.0000 C   0  0  1  0  0  0  0  0  0  0  0  0
    6.9343    2.7809    0.0000 C   0  0  1  0  0  0  0  0  0  0  0  0
    8.0268   -0.7126    0.0000 C   0  0  2  0  0  0  0  0  0  0  0  0
    6.0682    3.2809    0.0000 C   0  0  2  0  0  0  0  0  0  0  0  0
    6.3210   -0.4119    0.0000 C   0  0  0  0  0  0  0  0  0  0  0  0
    7.9343    1.7809    0.0000 C   0  0  0  0  0  0  0  0  0  0  0  0
    5.2022    2.7809    0.0000 C   0  0  0  0  0  0  0  0  0  0  0  0
    6.1474   -1.3968    0.0000 C   0  0  0  0  0  0  0  0  0  0  0  0
    5.2022    1.7809    0.0000 C   0  0  0  0  0  0  0  0  0  0  0  0
    9.0117   -0.8862    0.0000 C   0  0  0  0  0  0  0  0  0  0  0  0
    6.9135   -2.0396    0.0000 C   0  0  0  0  0  0  0  0  0  0  0  0
    4.3083    3.3156    0.0000 C   0  0  0  0  0  0  0  0  0  0  0  0
    8.4343    2.6470    0.0000 C   0  0  0  0  0  0  0  0  0  0  0  0
    8.4343    0.9149    0.0000 C   0  0  0  0  0  0  0  0  0  0  0  0
    5.1633   -1.7380    0.0000 C   0  0  0  0  0  0  0  0  0  0  0  0
    4.3083    1.2463    0.0000 C   0  0  0  0  0  0  0  0  0  0  0  0
    6.7486   -3.0680    0.0000 C   0  0  0  0  0  0  0  0  0  0  0  0
    9.3538   -1.8258    0.0000 C   0  0  0  0  0  0  0  0  0  0  0  0
    9.6543   -0.1201    0.0000 C   0  0  0  0  0  0  0  0  0  0  0  0
    3.4022    2.8017    0.0000 C   0  0  0  0  0  0  0  0  0  0  0  0
    3.4022    1.7601    0.0000 C   0  0  0  0  0  0  0  0  0  0  0  0
    9.4343    2.6470    0.0000 C   0  0  0  0  0  0  0  0  0  0  0  0
    9.4343    0.9149    0.0000 C   0  0  0  0  0  0  0  0  0  0  0  0
    4.9745   -2.7624    0.0000 C   0  0  0  0  0  0  0  0  0  0  0  0
    5.7725   -3.4319    0.0000 C   0  0  0  0  0  0  0  0  0  0  0  0
    9.9343    1.7809    0.0000 C   0  0  0  0  0  0  0  0  0  0  0  0
   10.3385   -1.9994    0.0000 C   0  0  0  0  0  0  0  0  0  0  0  0
   10.6392   -0.2937    0.0000 C   0  0  0  0  0  0  0  0  0  0  0  0
   10.9813   -1.2334    0.0000 C   0  0  0  0  0  0  0  0  0  0  0  0
    6.7857    0.3286    0.0000 H   0  0  0  0  0  0  0  0  0  0  0  0
    6.9343    3.4009    0.0000 H   0  0  0  0  0  0  0  0  0  0  0  0
    8.2888   -0.1507    0.0000 H   0  0  0  0  0  0  0  0  0  0  0  0
    5.5313    3.5909    0.0000 H   0  0  0  0  0  0  0  0  0  0  0  0
    6.2133    0.1986    0.0000 H   0  0  0  0  0  0  0  0  0  0  0  0
    5.7010   -0.4120    0.0000 H   0  0  0  0  0  0  0  0  0  0  0  0
    7.8003    3.9009    0.0000 H   0  0  0  0  0  0  0  0  0  0  0  0
    8.1243    3.1839    0.0000 H   0  0  0  0  0  0  0  0  0  0  0  0
    8.1243    0.3780    0.0000 H   0  0  0  0  0  0  0  0  0  0  0  0
    4.3154    0.6263    0.0000 H   0  0  0  0  0  0  0  0  0  0  0  0
    6.6052    4.5909    0.0000 H   0  0  0  0  0  0  0  0  0  0  0  0
    7.2281   -3.4610    0.0000 H   0  0  0  0  0  0  0  0  0  0  0  0
    8.9553   -2.3008    0.0000 H   0  0  0  0  0  0  0  0  0  0  0  0
    9.4422    0.4625    0.0000 H   0  0  0  0  0  0  0  0  0  0  0  0
    2.8665    3.1138    0.0000 H   0  0  0  0  0  0  0  0  0  0  0  0
    9.7443    0.3780    0.0000 H   0  0  0  0  0  0  0  0  0  0  0  0
    4.3911   -2.9722    0.0000 H   0  0  0  0  0  0  0  0  0  0  0  0
   11.0377    0.1813    0.0000 H   0  0  0  0  0  0  0  0  0  0  0  0
    3.7865    4.6317    0.0000 H   0  0  0  0  0  0  0  0  0  0  0  0
    3.8197   -1.2918    0.0000 H   0  0  0  0  0  0  0  0  0  0  0  0
    2.0000    1.5647    0.0000 H   0  0  0  0  0  0  0  0  0  0  0  0
   10.5543    3.5130    0.0000 H   0  0  0  0  0  0  0  0  0  0  0  0
    5.0210   -4.6317    0.0000 H   0  0  0  0  0  0  0  0  0  0  0  0
   11.2443    1.2440    0.0000 H   0  0  0  0  0  0  0  0  0  0  0  0
   11.2912   -3.0467    0.0000 H   0  0  0  0  0  0  0  0  0  0  0  0
   12.1782   -1.9895    0.0000 H   0  0  0  0  0  0  0  0  0  0  0  0
 14  1  1  6  0  0  0
 15  1  1  1  0  0  0
  2 14  1  0  0  0  0
  2 23  1  0  0  0  0
  3 17  1  0  0  0  0
  3 25  1  0  0  0  0
 16  4  1  1  0  0  0
  4 50  1  0  0  0  0
 18  5  1  6  0  0  0
  5 54  1  0  0  0  0
  6 26  1  0  0  0  0
  6 62  1  0  0  0  0
  7 29  1  0  0  0  0
  7 63  1  0  0  0  0
  8 35  1  0  0  0  0
  8 64  1  0  0  0  0
  9 36  1  0  0  0  0
  9 65  1  0  0  0  0
 10 39  1  0  0  0  0
 10 66  1  0  0  0  0
 11 40  1  0  0  0  0
 11 67  1  0  0  0  0
 12 41  1  0  0  0  0
 12 68  1  0  0  0  0
 13 43  1  0  0  0  0
 13 69  1  0  0  0  0
 14 16  1  0  0  0  0
 14 20  1  0  0  0  0
 15 17  1  0  0  0  0
 15 19  1  0  0  0  0
 15 44  1  0  0  0  0
 16 18  1  0  0  0  0
 16 45  1  0  0  0  0
 17 24  1  6  0  0  0
 17 46  1  0  0  0  0
 18 21  1  0  0  0  0
 18 47  1  0  0  0  0
 19 22  1  0  0  0  0
 19 48  1  0  0  0  0
 19 49  1  0  0  0  0
 20 27  2  0  0  0  0
 20 28  1  0  0  0  0
 21 23  1  0  0  0  0
 21 26  2  0  0  0  0
 22 25  1  0  0  0  0
 22 29  2  0  0  0  0
 23 30  2  0  0  0  0
 24 32  2  0  0  0  0
 24 33  1  0  0  0  0
 25 31  2  0  0  0  0
 26 34  1  0  0  0  0
 27 36  1  0  0  0  0
 27 51  1  0  0  0  0
 28 37  2  0  0  0  0
 28 52  1  0  0  0  0
 29 38  1  0  0  0  0
 30 35  1  0  0  0  0
 30 53  1  0  0  0  0
 31 39  1  0  0  0  0
 31 55  1  0  0  0  0
 32 41  1  0  0  0  0
 32 56  1  0  0  0  0
 33 42  2  0  0  0  0
 33 57  1  0  0  0  0
 34 35  2  0  0  0  0
 34 58  1  0  0  0  0
 36 40  2  0  0  0  0
 37 40  1  0  0  0  0
 37 59  1  0  0  0  0
 38 39  2  0  0  0  0
 38 60  1  0  0  0  0
 41 43  2  0  0  0  0
 42 43  1  0  0  0  0
 42 61  1  0  0  0  0
M  END
> <PUBCHEM_COMPOUND_CID>
122173182

> <PUBCHEM_COMPOUND_CANONICALIZED>
1

> <PUBCHEM_CACTVS_COMPLEXITY>
957

> <PUBCHEM_CACTVS_HBOND_ACCEPTOR>
13

> <PUBCHEM_CACTVS_HBOND_DONOR>
10

> <PUBCHEM_CACTVS_ROTATABLE_BOND>
4

> <PUBCHEM_CACTVS_SUBSKEYS>
AAADceB4PAAAAAAAAAAAAAAAAAAAAAAAAAA0aMGCAAAAAACRVAAAGgAACAAADBSgmAIwDoAABgCAAiBCAAACCAAgIAAIiAAGiIgdNyKGMRqieCGlwBUPuAfA4PwOIAABCAAIQABAAAIQABCAAAAAAAAAAA==

> <PUBCHEM_IUPAC_OPENEYE_NAME>
(2R,3R,4S)-2-(3,4-dihydroxyphenyl)-2-[(2S,3R)-2-(3,4-dihydroxyphenyl)-5,7-dihydroxy-chroman-3-yl]oxy-chromane-3,4,5,7-tetrol

> <PUBCHEM_IUPAC_CAS_NAME>
(2R,3R,4S)-2-(3,4-dihydroxyphenyl)-2-[[(2S,3R)-2-(3,4-dihydroxyphenyl)-5,7-dihydroxy-3,4-dihydro-2H-1-benzopyran-3-yl]oxy]-3,4-dihydro-2H-1-benzopyran-3,4,5,7-tetrol

> <PUBCHEM_IUPAC_NAME_MARKUP>
(2<I>R</I>,3<I>R</I>,4<I>S</I>)-2-(3,4-dihydroxyphenyl)-2-[[(2<I>S</I>,3<I>R</I>)-2-(3,4-dihydroxyphenyl)-5,7-dihydroxy-3,4-dihydro-2<I>H</I>-chromen-3-yl]oxy]-3,4-dihydrochromene-3,4,5,7-tetrol

> <PUBCHEM_IUPAC_NAME>
(2R,3R,4S)-2-(3,4-dihydroxyphenyl)-2-[[(2S,3R)-2-(3,4-dihydroxyphenyl)-5,7-dihydroxy-3,4-dihydro-2H-chromen-3-yl]oxy]-3,4-dihydrochromene-3,4,5,7-tetrol

> <PUBCHEM_IUPAC_SYSTEMATIC_NAME>
(2R,3R,4S)-2-[3,4-bis(oxidanyl)phenyl]-2-[[(2S,3R)-2-[3,4-bis(oxidanyl)phenyl]-5,7-bis(oxidanyl)-3,4-dihydro-2H-chromen-3-yl]oxy]-3,4-dihydrochromene-3,4,5,7-tetrol

> <PUBCHEM_IUPAC_TRADITIONAL_NAME>
(2R,3R,4S)-2-(3,4-dihydroxyphenyl)-2-[(2S,3R)-2-(3,4-dihydroxyphenyl)-5,7-dihydroxy-chroman-3-yl]oxy-chroman-3,4,5,7-tetrol

> <PUBCHEM_IUPAC_INCHI>
InChI=1S/C30H26O13/c31-14-7-19(35)16-11-25(28(41-23(16)9-14)12-1-3-17(33)20(36)5-12)43-30(13-2-4-18(34)21(37)6-13)29(40)27(39)26-22(38)8-15(32)10-24(26)42-30/h1-10,25,27-29,31-40H,11H2/t25-,27+,28+,29-,30+/m1/s1

> <PUBCHEM_IUPAC_INCHIKEY>
HGVVOUNEGQIPMS-JOFXVPDFSA-N

> <PUBCHEM_XLOGP3_AA>
2

> <PUBCHEM_EXACT_MASS>
594.137341

> <PUBCHEM_MOLECULAR_FORMULA>
C30H26O13

> <PUBCHEM_MOLECULAR_WEIGHT>
594.5

> <PUBCHEM_OPENEYE_CAN_SMILES>
C1C(C(OC2=CC(=CC(=C21)O)O)C3=CC(=C(C=C3)O)O)OC4(C(C(C5=C(C=C(C=C5O4)O)O)O)O)C6=CC(=C(C=C6)O)O

> <PUBCHEM_OPENEYE_ISO_SMILES>
C1[C@H]([C@@H](OC2=CC(=CC(=C21)O)O)C3=CC(=C(C=C3)O)O)O[C@]4([C@@H]([C@H](C5=C(C=C(C=C5O4)O)O)O)O)C6=CC(=C(C=C6)O)O

> <PUBCHEM_CACTVS_TPSA>
230

> <PUBCHEM_MONOISOTOPIC_WEIGHT>
594.137341

> <PUBCHEM_TOTAL_CHARGE>
0

> <PUBCHEM_HEAVY_ATOM_COUNT>
43

> <PUBCHEM_ATOM_DEF_STEREO_COUNT>
5

> <PUBCHEM_ATOM_UDEF_STEREO_COUNT>
0

> <PUBCHEM_BOND_DEF_STEREO_COUNT>
0

> <PUBCHEM_BOND_UDEF_STEREO_COUNT>
0

> <PUBCHEM_ISOTOPIC_ATOM_COUNT>
0

> <PUBCHEM_COMPONENT_COUNT>
1

> <PUBCHEM_CACTVS_TAUTO_COUNT>
-1

> <PUBCHEM_COORDINATE_TYPE>
1
5
255

> <PUBCHEM_BONDANNOTATIONS>
14  1  6
15  1  5
17  24  6
20  27  8
20  28  8
21  23  8
21  26  8
22  25  8
22  29  8
23  30  8
24  32  8
24  33  8
25  31  8
26  34  8
27  36  8
28  37  8
29  38  8
30  35  8
31  39  8
32  41  8
33  42  8
34  35  8
36  40  8
37  40  8
38  39  8
16  4  5
41  43  8
42  43  8
18  5  6

$$$$
102601232
  -OEChem-04052116542D

 64 66  0     1  0  0  0  0  0999 V2000
    5.4641   -1.2500    0.0000 O   0  0  0  0  0  0  0  0  0  0  0  0
    7.1962   -1.2500    0.0000 O   0  0  0  0  0  0  0  0  0  0  0  0
    5.4641   -4.2500    0.0000 O   0  0  0  0  0  0  0  0  0  0  0  0
    3.7320   -3.2500    0.0000 O   0  0  0  0  0  0  0  0  0  0  0  0
    7.1962   -3.2500    0.0000 O   0  0  0  0  0  0  0  0  0  0  0  0
    2.8660   -1.7500    0.0000 O   0  0  0  0  0  0  0  0  0  0  0  0
    9.5920    0.7500    0.0000 O   0  0  0  0  0  0  0  0  0  0  0  0
    5.9881    2.1897    0.0000 O   0  0  0  0  0  0  0  0  0  0  0  0
    9.3191   -1.0052    0.0000 O   0  0  0  0  0  0  0  0  0  0  0  0
    2.8660    4.2500    0.0000 O   0  0  0  0  0  0  0  0  0  0  0  0
    2.0000    2.7500    0.0000 O   0  0  0  0  0  0  0  0  0  0  0  0
    5.4641   -3.2500    0.0000 C   0  0  3  0  0  0  0  0  0  0  0  0
    4.5981   -2.7500    0.0000 C   0  0  1  0  0  0  0  0  0  0  0  0
    6.3301   -2.7500    0.0000 C   0  0  3  0  0  0  0  0  0  0  0  0
    4.5981   -1.7500    0.0000 C   0  0  3  0  0  0  0  0  0  0  0  0
    6.3301   -1.7500    0.0000 C   0  0  1  0  0  0  0  0  0  0  0  0
    3.7320   -1.2500    0.0000 C   0  0  0  0  0  0  0  0  0  0  0  0
    7.1962   -0.2500    0.0000 C   0  0  0  0  0  0  0  0  0  0  0  0
    8.0622    0.2500    0.0000 C   0  0  0  0  0  0  0  0  0  0  0  0
    6.3301    0.2500    0.0000 C   0  0  0  0  0  0  0  0  0  0  0  0
    8.0622    1.2500    0.0000 C   0  0  0  0  0  0  0  0  0  0  0  0
    7.1962    1.7500    0.0000 C   0  0  0  0  0  0  0  0  0  0  0  0
    6.3301    1.2500    0.0000 C   0  0  0  0  0  0  0  0  0  0  0  0
    5.4641   -0.2500    0.0000 C   0  0  0  0  0  0  0  0  0  0  0  0
    9.0084    1.5547    0.0000 C   0  0  0  0  0  0  0  0  0  0  0  0
    9.0084   -0.0547    0.0000 C   0  0  0  0  0  0  0  0  0  0  0  0
    7.1962    2.7500    0.0000 C   0  0  0  0  0  0  0  0  0  0  0  0
    4.5981    0.2500    0.0000 C   0  0  0  0  0  0  0  0  0  0  0  0
    4.5981    1.2500    0.0000 C   0  0  0  0  0  0  0  0  0  0  0  0
    3.7320    1.7500    0.0000 C   0  0  0  0  0  0  0  0  0  0  0  0
    6.6309    2.9557    0.0000 C   0  0  0  0  0  0  0  0  0  0  0  0
    5.4641    1.7500    0.0000 C   0  0  0  0  0  0  0  0  0  0  0  0
    3.7320    2.7500    0.0000 C   0  0  0  0  0  0  0  0  0  0  0  0
    2.8660    3.2500    0.0000 C   0  0  0  0  0  0  0  0  0  0  0  0
    4.9272   -3.5600    0.0000 H   0  0  0  0  0  0  0  0  0  0  0  0
    4.5981   -3.3700    0.0000 H   0  0  0  0  0  0  0  0  0  0  0  0
    6.3301   -3.3700    0.0000 H   0  0  0  0  0  0  0  0  0  0  0  0
    4.5981   -1.1300    0.0000 H   0  0  0  0  0  0  0  0  0  0  0  0
    6.3301   -1.1300    0.0000 H   0  0  0  0  0  0  0  0  0  0  0  0
    4.1306   -0.7751    0.0000 H   0  0  0  0  0  0  0  0  0  0  0  0
    3.3335   -0.7751    0.0000 H   0  0  0  0  0  0  0  0  0  0  0  0
    4.9272   -4.5600    0.0000 H   0  0  0  0  0  0  0  0  0  0  0  0
    3.7320   -3.8700    0.0000 H   0  0  0  0  0  0  0  0  0  0  0  0
    7.1962   -3.8700    0.0000 H   0  0  0  0  0  0  0  0  0  0  0  0
    5.0656   -0.7249    0.0000 H   0  0  0  0  0  0  0  0  0  0  0  0
    5.8626   -0.7249    0.0000 H   0  0  0  0  0  0  0  0  0  0  0  0
    9.5458    1.8640    0.0000 H   0  0  0  0  0  0  0  0  0  0  0  0
    8.7574    2.1216    0.0000 H   0  0  0  0  0  0  0  0  0  0  0  0
    2.3291   -1.4400    0.0000 H   0  0  0  0  0  0  0  0  0  0  0  0
    7.8162    2.7500    0.0000 H   0  0  0  0  0  0  0  0  0  0  0  0
    7.1962    3.3700    0.0000 H   0  0  0  0  0  0  0  0  0  0  0  0
    6.5762    2.7500    0.0000 H   0  0  0  0  0  0  0  0  0  0  0  0
    4.0611   -0.0600    0.0000 H   0  0  0  0  0  0  0  0  0  0  0  0
    3.1215    1.8577    0.0000 H   0  0  0  0  0  0  0  0  0  0  0  0
    3.5200    1.1674    0.0000 H   0  0  0  0  0  0  0  0  0  0  0  0
    7.1058    2.5572    0.0000 H   0  0  0  0  0  0  0  0  0  0  0  0
    7.0294    3.4307    0.0000 H   0  0  0  0  0  0  0  0  0  0  0  0
    6.1560    3.3543    0.0000 H   0  0  0  0  0  0  0  0  0  0  0  0
    5.7741    1.2131    0.0000 H   0  0  0  0  0  0  0  0  0  0  0  0
    6.0010    2.0600    0.0000 H   0  0  0  0  0  0  0  0  0  0  0  0
    5.1541    2.2869    0.0000 H   0  0  0  0  0  0  0  0  0  0  0  0
    4.3426    2.6423    0.0000 H   0  0  0  0  0  0  0  0  0  0  0  0
    3.9441    3.3326    0.0000 H   0  0  0  0  0  0  0  0  0  0  0  0
    2.3291    4.5600    0.0000 H   0  0  0  0  0  0  0  0  0  0  0  0
  1 15  1  0  0  0  0
  1 16  1  0  0  0  0
 16  2  1  1  0  0  0
  2 18  1  0  0  0  0
  3 12  1  0  0  0  0
  3 42  1  0  0  0  0
 13  4  1  6  0  0  0
  4 43  1  0  0  0  0
  5 14  1  0  0  0  0
  5 44  1  0  0  0  0
  6 17  1  0  0  0  0
  6 49  1  0  0  0  0
  7 25  1  0  0  0  0
  7 26  1  0  0  0  0
  8 23  1  0  0  0  0
  8 31  1  0  0  0  0
  9 26  2  0  0  0  0
 10 34  1  0  0  0  0
 10 64  1  0  0  0  0
 11 34  2  0  0  0  0
 12 13  1  0  0  0  0
 12 14  1  0  0  0  0
 12 35  1  0  0  0  0
 13 15  1  0  0  0  0
 13 36  1  0  0  0  0
 14 16  1  0  0  0  0
 14 37  1  0  0  0  0
 15 17  1  0  0  0  0
 15 38  1  0  0  0  0
 16 39  1  0  0  0  0
 17 40  1  0  0  0  0
 17 41  1  0  0  0  0
 18 19  2  0  0  0  0
 18 20  1  0  0  0  0
 19 21  1  0  0  0  0
 19 26  1  0  0  0  0
 20 23  2  0  0  0  0
 20 24  1  0  0  0  0
 21 22  2  0  0  0  0
 21 25  1  0  0  0  0
 22 23  1  0  0  0  0
 22 27  1  0  0  0  0
 24 28  1  0  0  0  0
 24 45  1  0  0  0  0
 24 46  1  0  0  0  0
 25 47  1  0  0  0  0
 25 48  1  0  0  0  0
 27 50  1  0  0  0  0
 27 51  1  0  0  0  0
 27 52  1  0  0  0  0
 28 29  2  0  0  0  0
 28 53  1  0  0  0  0
 29 30  1  0  0  0  0
 29 32  1  0  0  0  0
 30 33  1  0  0  0  0
 30 54  1  0  0  0  0
 30 55  1  0  0  0  0
 31 56  1  0  0  0  0
 31 57  1  0  0  0  0
 31 58  1  0  0  0  0
 32 59  1  0  0  0  0
 32 60  1  0  0  0  0
 32 61  1  0  0  0  0
 33 34  1  0  0  0  0
 33 62  1  0  0  0  0
 33 63  1  0  0  0  0
M  END
> <PUBCHEM_COMPOUND_CID>
102601232

> <PUBCHEM_COMPOUND_CANONICALIZED>
1

> <PUBCHEM_CACTVS_COMPLEXITY>
755

> <PUBCHEM_CACTVS_HBOND_ACCEPTOR>
11

> <PUBCHEM_CACTVS_HBOND_DONOR>
5

> <PUBCHEM_CACTVS_ROTATABLE_BOND>
9

> <PUBCHEM_CACTVS_SUBSKEYS>
AAADceB4PAAAAAAAAAAAAAAAAAAAASAAAAA0QAAAAAAAAEgBAAAAGgAACAAADBSwmAMCDoAABgCIAiDSCAACCAAkIAAAiAEECMgdNzaENRqieWCl4BUPqQfK7PzO4AADCAAYAADAAAYQADAAAAAAAAAAAA==

> <PUBCHEM_IUPAC_OPENEYE_NAME>
(E)-6-[6-methoxy-7-methyl-3-oxo-4-[(2S,5S)-3,4,5-trihydroxy-6-(hydroxymethyl)tetrahydropyran-2-yl]oxy-1H-isobenzofuran-5-yl]-4-methyl-hex-4-enoic acid

> <PUBCHEM_IUPAC_CAS_NAME>
(E)-6-[6-methoxy-7-methyl-3-oxo-4-[[(2S,5S)-3,4,5-trihydroxy-6-(hydroxymethyl)-2-oxanyl]oxy]-1H-isobenzofuran-5-yl]-4-methyl-4-hexenoic acid

> <PUBCHEM_IUPAC_NAME_MARKUP>
(<I>E</I>)-6-[6-methoxy-7-methyl-3-oxo-4-[(2<I>S</I>,5<I>S</I>)-3,4,5-trihydroxy-6-(hydroxymethyl)oxan-2-yl]oxy-1<I>H</I>-2-benzofuran-5-yl]-4-methylhex-4-enoic acid

> <PUBCHEM_IUPAC_NAME>
(E)-6-[6-methoxy-7-methyl-3-oxo-4-[(2S,5S)-3,4,5-trihydroxy-6-(hydroxymethyl)oxan-2-yl]oxy-1H-2-benzofuran-5-yl]-4-methylhex-4-enoic acid

> <PUBCHEM_IUPAC_SYSTEMATIC_NAME>
(E)-6-[4-[(2S,5S)-6-(hydroxymethyl)-3,4,5-tris(oxidanyl)oxan-2-yl]oxy-6-methoxy-7-methyl-3-oxidanylidene-1H-2-benzofuran-5-yl]-4-methyl-hex-4-enoic acid

> <PUBCHEM_IUPAC_TRADITIONAL_NAME>
(E)-6-[3-keto-6-methoxy-7-methyl-4-[(2S,5S)-3,4,5-trihydroxy-6-methylol-tetrahydropyran-2-yl]oxy-phthalan-5-yl]-4-methyl-hex-4-enoic acid

> <PUBCHEM_IUPAC_INCHI>
InChI=1S/C23H30O11/c1-10(5-7-15(25)26)4-6-12-20(31-3)11(2)13-9-32-22(30)16(13)21(12)34-23-19(29)18(28)17(27)14(8-24)33-23/h4,14,17-19,23-24,27-29H,5-9H2,1-3H3,(H,25,26)/b10-4+/t14?,17-,18?,19?,23+/m1/s1

> <PUBCHEM_IUPAC_INCHIKEY>
PXWZKGRCFSHAMN-NNRJUKJESA-N

> <PUBCHEM_XLOGP3_AA>
0.8

> <PUBCHEM_EXACT_MASS>
482.178812

> <PUBCHEM_MOLECULAR_FORMULA>
C23H30O11

> <PUBCHEM_MOLECULAR_WEIGHT>
482.5

> <PUBCHEM_OPENEYE_CAN_SMILES>
CC1=C2COC(=O)C2=C(C(=C1OC)CC=C(C)CCC(=O)O)OC3C(C(C(C(O3)CO)O)O)O

> <PUBCHEM_OPENEYE_ISO_SMILES>
CC1=C2COC(=O)C2=C(C(=C1OC)C/C=C(\C)/CCC(=O)O)O[C@H]3C(C([C@@H](C(O3)CO)O)O)O

> <PUBCHEM_CACTVS_TPSA>
172

> <PUBCHEM_MONOISOTOPIC_WEIGHT>
482.178812

> <PUBCHEM_TOTAL_CHARGE>
0

> <PUBCHEM_HEAVY_ATOM_COUNT>
34

> <PUBCHEM_ATOM_DEF_STEREO_COUNT>
2

> <PUBCHEM_ATOM_UDEF_STEREO_COUNT>
3

> <PUBCHEM_BOND_DEF_STEREO_COUNT>
1

> <PUBCHEM_BOND_UDEF_STEREO_COUNT>
0

> <PUBCHEM_ISOTOPIC_ATOM_COUNT>
0

> <PUBCHEM_COMPONENT_COUNT>
1

> <PUBCHEM_CACTVS_TAUTO_COUNT>
-1

> <PUBCHEM_COORDINATE_TYPE>
1
5
255

> <PUBCHEM_BONDANNOTATIONS>
15  17  3
18  19  8
18  20  8
19  21  8
16  2  5
20  23  8
21  22  8
22  23  8
12  3  3
13  4  6
14  5  3

$$$$
102390020
  -OEChem-04052116542D

100108  0     1  0  0  0  0  0999 V2000
    5.7205   -1.4663    0.0000 O   0  0  0  0  0  0  0  0  0  0  0  0
    6.5251   -1.6245    0.0000 O   0  0  0  0  0  0  0  0  0  0  0  0
    4.1733   -4.5561    0.0000 O   0  0  0  0  0  0  0  0  0  0  0  0
    3.6944   -0.7286    0.0000 O   0  0  0  0  0  0  0  0  0  0  0  0
    6.7322    0.9839    0.0000 O   0  0  0  0  0  0  0  0  0  0  0  0
    2.6330   -2.5763    0.0000 O   0  0  0  0  0  0  0  0  0  0  0  0
    8.4569   -1.1069    0.0000 O   0  0  0  0  0  0  0  0  0  0  0  0
    3.0435   -4.9423    0.0000 O   0  0  0  0  0  0  0  0  0  0  0  0
    6.0026   -3.0640    0.0000 O   0  0  0  0  0  0  0  0  0  0  0  0
    2.3680   -3.3474    0.0000 O   0  0  0  0  0  0  0  0  0  0  0  0
    4.9086   -5.0088    0.0000 O   0  0  0  0  0  0  0  0  0  0  0  0
    7.4910   -1.3657    0.0000 O   0  0  0  0  0  0  0  0  0  0  0  0
    8.1981    1.2733    0.0000 O   0  0  0  0  0  0  0  0  0  0  0  0
    6.4380   -6.3321    0.0000 O   0  0  0  0  0  0  0  0  0  0  0  0
    8.3296   -5.6165    0.0000 O   0  0  0  0  0  0  0  0  0  0  0  0
    7.9392   -3.0387    0.0000 O   0  0  0  0  0  0  0  0  0  0  0  0
    9.1015   -5.4565    0.0000 O   0  0  0  0  0  0  0  0  0  0  0  0
    8.2284    1.7628    0.0000 O   0  0  0  0  0  0  0  0  0  0  0  0
   11.0841   -4.9416    0.0000 O   0  0  0  0  0  0  0  0  0  0  0  0
   11.6142   -2.9631    0.0000 O   0  0  0  0  0  0  0  0  0  0  0  0
    7.3049    2.9587    0.0000 O   0  0  0  0  0  0  0  0  0  0  0  0
    5.4838    4.8845    0.0000 O   0  0  0  0  0  0  0  0  0  0  0  0
    3.7021    1.8258    0.0000 O   0  0  0  0  0  0  0  0  0  0  0  0
    6.3444    5.3814    0.0000 O   0  0  0  0  0  0  0  0  0  0  0  0
    3.7021    3.8741    0.0000 O   0  0  0  0  0  0  0  0  0  0  0  0
    8.1103    6.4192    0.0000 O   0  0  0  0  0  0  0  0  0  0  0  0
    9.8842    5.3950    0.0000 O   0  0  0  0  0  0  0  0  0  0  0  0
    5.0945   -3.5442    0.0000 C   0  0  1  0  0  0  0  0  0  0  0  0
    4.0870   -3.5599    0.0000 C   0  0  2  0  0  0  0  0  0  0  0  0
    4.2338   -1.8559    0.0000 C   0  0  0  0  0  0  0  0  0  0  0  0
    5.5370   -0.4802    0.0000 C   0  0  1  0  0  0  0  0  0  0  0  0
    4.3961   -2.8367    0.0000 C   0  0  0  0  0  0  0  0  0  0  0  0
    4.6670   -0.9612    0.0000 C   0  0  2  0  0  0  0  0  0  0  0  0
    6.5251   -0.5892    0.0000 C   0  0  1  0  0  0  0  0  0  0  0  0
    3.6293   -2.6621    0.0000 C   0  0  0  0  0  0  0  0  0  0  0  0
    6.0731   -3.7191    0.0000 C   0  0  0  0  0  0  0  0  0  0  0  0
    7.2322    0.1179    0.0000 C   0  0  1  0  0  0  0  0  0  0  0  0
    5.2835   -2.3691    0.0000 C   0  0  0  0  0  0  0  0  0  0  0  0
    6.9734   -3.2976    0.0000 C   0  0  0  0  0  0  0  0  0  0  0  0
    3.1662   -3.9499    0.0000 C   0  0  0  0  0  0  0  0  0  0  0  0
    8.1981   -0.1410    0.0000 C   0  0  1  0  0  0  0  0  0  0  0  0
    5.8578   -4.6942    0.0000 C   0  0  0  0  0  0  0  0  0  0  0  0
    7.2322   -2.3316    0.0000 C   0  0  0  0  0  0  0  0  0  0  0  0
    7.6805   -4.0047    0.0000 C   0  0  0  0  0  0  0  0  0  0  0  0
    8.9052    0.5662    0.0000 C   0  0  0  0  0  0  0  0  0  0  0  0
    6.6129   -5.3475    0.0000 C   0  0  0  0  0  0  0  0  0  0  0  0
    7.5468   -4.9942    0.0000 C   0  0  0  0  0  0  0  0  0  0  0  0
    8.6464   -3.7458    0.0000 C   0  0  0  0  0  0  0  0  0  0  0  0
    8.9052   -2.7799    0.0000 C   0  0  0  0  0  0  0  0  0  0  0  0
    8.1981   -2.0728    0.0000 C   0  0  0  0  0  0  0  0  0  0  0  0
    7.2322    1.8499    0.0000 C   0  0  0  0  0  0  0  0  0  0  0  0
    9.3715   -4.4936    0.0000 C   0  0  0  0  0  0  0  0  0  0  0  0
    2.1227   -5.3323    0.0000 C   0  0  0  0  0  0  0  0  0  0  0  0
    9.9071   -2.4948    0.0000 C   0  0  0  0  0  0  0  0  0  0  0  0
    6.3662    2.3499    0.0000 C   0  0  0  0  0  0  0  0  0  0  0  0
   10.3797   -4.2318    0.0000 C   0  0  0  0  0  0  0  0  0  0  0  0
   10.6493   -3.2257    0.0000 C   0  0  0  0  0  0  0  0  0  0  0  0
    2.0000   -6.3248    0.0000 C   0  0  0  0  0  0  0  0  0  0  0  0
    8.0982    2.3499    0.0000 C   0  0  0  0  0  0  0  0  0  0  0  0
    6.3662    3.3499    0.0000 C   0  0  0  0  0  0  0  0  0  0  0  0
    8.0982    3.3499    0.0000 C   0  0  0  0  0  0  0  0  0  0  0  0
    7.2322    3.8499    0.0000 C   0  0  0  0  0  0  0  0  0  0  0  0
    5.4722    1.8153    0.0000 C   0  0  0  0  0  0  0  0  0  0  0  0
    5.4722    3.8846    0.0000 C   0  0  0  0  0  0  0  0  0  0  0  0
    4.5662    2.3291    0.0000 C   0  0  0  0  0  0  0  0  0  0  0  0
    7.2161    4.8914    0.0000 C   0  0  0  0  0  0  0  0  0  0  0  0
    9.0082    3.8568    0.0000 C   0  0  0  0  0  0  0  0  0  0  0  0
    4.5662    3.3707    0.0000 C   0  0  0  0  0  0  0  0  0  0  0  0
    8.1142    5.4192    0.0000 C   0  0  0  0  0  0  0  0  0  0  0  0
    9.0162    4.8984    0.0000 C   0  0  0  0  0  0  0  0  0  0  0  0
    4.6987   -4.2964    0.0000 H   0  0  0  0  0  0  0  0  0  0  0  0
    4.9141    0.0981    0.0000 H   0  0  0  0  0  0  0  0  0  0  0  0
    4.4904   -0.3669    0.0000 H   0  0  0  0  0  0  0  0  0  0  0  0
    5.8031   -1.0378    0.0000 H   0  0  0  0  0  0  0  0  0  0  0  0
    6.3895    0.2288    0.0000 H   0  0  0  0  0  0  0  0  0  0  0  0
    9.0192   -0.3609    0.0000 H   0  0  0  0  0  0  0  0  0  0  0  0
    3.6652   -4.9113    0.0000 H   0  0  0  0  0  0  0  0  0  0  0  0
    3.5178   -0.1343    0.0000 H   0  0  0  0  0  0  0  0  0  0  0  0
    9.3436    0.1277    0.0000 H   0  0  0  0  0  0  0  0  0  0  0  0
    9.3436    1.0046    0.0000 H   0  0  0  0  0  0  0  0  0  0  0  0
    4.7832   -5.6160    0.0000 H   0  0  0  0  0  0  0  0  0  0  0  0
    1.9837   -4.7281    0.0000 H   0  0  0  0  0  0  0  0  0  0  0  0
    1.5035   -5.3643    0.0000 H   0  0  0  0  0  0  0  0  0  0  0  0
    6.9124   -6.7312    0.0000 H   0  0  0  0  0  0  0  0  0  0  0  0
   10.0606   -1.8942    0.0000 H   0  0  0  0  0  0  0  0  0  0  0  0
    8.2381   -6.2297    0.0000 H   0  0  0  0  0  0  0  0  0  0  0  0
    1.3847   -6.2487    0.0000 H   0  0  0  0  0  0  0  0  0  0  0  0
    1.9240   -6.9401    0.0000 H   0  0  0  0  0  0  0  0  0  0  0  0
    2.6153   -6.4008    0.0000 H   0  0  0  0  0  0  0  0  0  0  0  0
    5.4794    1.1953    0.0000 H   0  0  0  0  0  0  0  0  0  0  0  0
    9.5348   -5.9000    0.0000 H   0  0  0  0  0  0  0  0  0  0  0  0
   11.6836   -4.7835    0.0000 H   0  0  0  0  0  0  0  0  0  0  0  0
    9.5415    3.5406    0.0000 H   0  0  0  0  0  0  0  0  0  0  0  0
   11.7724   -2.3636    0.0000 H   0  0  0  0  0  0  0  0  0  0  0  0
    4.9505    5.2007    0.0000 H   0  0  0  0  0  0  0  0  0  0  0  0
    3.1639    2.1337    0.0000 H   0  0  0  0  0  0  0  0  0  0  0  0
    6.3372    6.0013    0.0000 H   0  0  0  0  0  0  0  0  0  0  0  0
    3.1639    3.5661    0.0000 H   0  0  0  0  0  0  0  0  0  0  0  0
    8.6460    6.7312    0.0000 H   0  0  0  0  0  0  0  0  0  0  0  0
   10.4199    5.0830    0.0000 H   0  0  0  0  0  0  0  0  0  0  0  0
  1 31  1  0  0  0  0
  1 38  1  0  0  0  0
  2 34  1  0  0  0  0
  2 43  1  0  0  0  0
 29  3  1  1  0  0  0
  3 77  1  0  0  0  0
 33  4  1  1  0  0  0
  4 78  1  0  0  0  0
  5 37  1  0  0  0  0
  5 51  1  0  0  0  0
  6 35  2  0  0  0  0
  7 41  1  0  0  0  0
  7 50  1  0  0  0  0
  8 40  1  0  0  0  0
  8 53  1  0  0  0  0
  9 38  2  0  0  0  0
 10 40  2  0  0  0  0
 11 42  1  0  0  0  0
 11 81  1  0  0  0  0
 12 43  2  0  0  0  0
 13 45  1  0  0  0  0
 13 59  1  0  0  0  0
 14 46  1  0  0  0  0
 14 84  1  0  0  0  0
 15 47  1  0  0  0  0
 15 86  1  0  0  0  0
 16 50  2  0  0  0  0
 17 52  1  0  0  0  0
 17 91  1  0  0  0  0
 18 51  2  0  0  0  0
 19 56  1  0  0  0  0
 19 92  1  0  0  0  0
 20 57  1  0  0  0  0
 20 94  1  0  0  0  0
 21 59  2  0  0  0  0
 22 64  1  0  0  0  0
 22 95  1  0  0  0  0
 23 65  1  0  0  0  0
 23 96  1  0  0  0  0
 24 66  1  0  0  0  0
 24 97  1  0  0  0  0
 25 68  1  0  0  0  0
 25 98  1  0  0  0  0
 26 69  1  0  0  0  0
 26 99  1  0  0  0  0
 27 70  1  0  0  0  0
 27100  1  0  0  0  0
 28 29  1  0  0  0  0
 28 32  1  0  0  0  0
 28 36  1  0  0  0  0
 28 71  1  6  0  0  0
 29 35  1  0  0  0  0
 29 40  1  0  0  0  0
 30 32  2  0  0  0  0
 30 33  1  0  0  0  0
 30 35  1  0  0  0  0
 31 33  1  0  0  0  0
 31 34  1  0  0  0  0
 31 72  1  6  0  0  0
 32 38  1  0  0  0  0
 33 73  1  0  0  0  0
 34 37  1  0  0  0  0
 34 74  1  6  0  0  0
 36 39  1  0  0  0  0
 36 42  2  0  0  0  0
 37 41  1  0  0  0  0
 37 75  1  1  0  0  0
 39 43  1  0  0  0  0
 39 44  2  0  0  0  0
 41 45  1  0  0  0  0
 41 76  1  6  0  0  0
 42 46  1  0  0  0  0
 44 47  1  0  0  0  0
 44 48  1  0  0  0  0
 45 79  1  0  0  0  0
 45 80  1  0  0  0  0
 46 47  2  0  0  0  0
 48 49  1  0  0  0  0
 48 52  2  0  0  0  0
 49 50  1  0  0  0  0
 49 54  2  0  0  0  0
 51 55  1  0  0  0  0
 52 56  1  0  0  0  0
 53 58  1  0  0  0  0
 53 82  1  0  0  0  0
 53 83  1  0  0  0  0
 54 57  1  0  0  0  0
 54 85  1  0  0  0  0
 55 60  1  0  0  0  0
 55 63  2  0  0  0  0
 56 57  2  0  0  0  0
 58 87  1  0  0  0  0
 58 88  1  0  0  0  0
 58 89  1  0  0  0  0
 59 61  1  0  0  0  0
 60 62  1  0  0  0  0
 60 64  2  0  0  0  0
 61 62  1  0  0  0  0
 61 67  2  0  0  0  0
 62 66  2  0  0  0  0
 63 65  1  0  0  0  0
 63 90  1  0  0  0  0
 64 68  1  0  0  0  0
 65 68  2  0  0  0  0
 66 69  1  0  0  0  0
 67 70  1  0  0  0  0
 67 93  1  0  0  0  0
 69 70  2  0  0  0  0
M  END
> <PUBCHEM_COMPOUND_CID>
102390020

> <PUBCHEM_COMPOUND_CANONICALIZED>
1

> <PUBCHEM_CACTVS_COMPLEXITY>
2220

> <PUBCHEM_CACTVS_HBOND_ACCEPTOR>
27

> <PUBCHEM_CACTVS_HBOND_DONOR>
14

> <PUBCHEM_CACTVS_ROTATABLE_BOND>
3

> <PUBCHEM_CACTVS_SUBSKEYS>
AAADceB8PgAAAAAAAAAAAAAAAAAAAQAAAAAwYMGCAAAAAACRVAAAGgAACAAADVSgmAIyDoAABgCIAqDSCAICAAAkIAAAiAFGiMgJNzaKNBqCcQEl4BULuYfK7vzuoAADCAAYQABAAAYQADCAAAAAAAAAAA==

> <PUBCHEM_IUPAC_OPENEYE_NAME>
ethyl (1S,2R,20R,34R,35R,41S,45R)-7,8,9,12,13,14,25,26,27,30,31,32,35,45-tetradecahydroxy-4,17,22,36,39,43-hexaoxo-3,18,21,40,42-pentaoxanonacyclo[27.12.3.137,41.02,20.05,10.011,16.023,28.033,44.034,38]pentatetraconta-5,7,9,11,13,15,23,25,27,29(44),30,32,37-tridecaene-35-carboxylate

> <PUBCHEM_IUPAC_CAS_NAME>
(1S,2R,20R,34R,35R,41S,45R)-7,8,9,12,13,14,25,26,27,30,31,32,35,45-tetradecahydroxy-4,17,22,36,39,43-hexaoxo-3,18,21,40,42-pentaoxanonacyclo[27.12.3.137,41.02,20.05,10.011,16.023,28.033,44.034,38]pentatetraconta-5,7,9,11,13,15,23,25,27,29(44),30,32,37-tridecaene-35-carboxylic acid ethyl ester

> <PUBCHEM_IUPAC_NAME_MARKUP>
ethyl (1<I>S</I>,2<I>R</I>,20<I>R</I>,34<I>R</I>,35<I>R</I>,41<I>S</I>,45<I>R</I>)-7,8,9,12,13,14,25,26,27,30,31,32,35,45-tetradecahydroxy-4,17,22,36,39,43-hexaoxo-3,18,21,40,42-pentaoxanonacyclo[27.12.3.1<SUP>37,41</SUP>.0<SUP>2,20</SUP>.0<SUP>5,10</SUP>.0<SUP>11,16</SUP>.0<SUP>23,28</SUP>.0<SUP>33,44</SUP>.0<SUP>34,38</SUP>]pentatetraconta-5,7,9,11,13,15,23,25,27,29(44),30,32,37-tridecaene-35-carboxylate

> <PUBCHEM_IUPAC_NAME>
ethyl (1S,2R,20R,34R,35R,41S,45R)-7,8,9,12,13,14,25,26,27,30,31,32,35,45-tetradecahydroxy-4,17,22,36,39,43-hexaoxo-3,18,21,40,42-pentaoxanonacyclo[27.12.3.137,41.02,20.05,10.011,16.023,28.033,44.034,38]pentatetraconta-5,7,9,11,13,15,23,25,27,29(44),30,32,37-tridecaene-35-carboxylate

> <PUBCHEM_IUPAC_SYSTEMATIC_NAME>
ethyl (1S,2R,20R,34R,35R,41S,45R)-7,8,9,12,13,14,25,26,27,30,31,32,35,45-tetradecakis(oxidanyl)-4,17,22,36,39,43-hexakis(oxidanylidene)-3,18,21,40,42-pentaoxanonacyclo[27.12.3.137,41.02,20.05,10.011,16.023,28.033,44.034,38]pentatetraconta-5,7,9,11,13,15,23,25,27,29(44),30,32,37-tridecaene-35-carboxylate

> <PUBCHEM_IUPAC_TRADITIONAL_NAME>
(1S,2R,20R,34R,35R,41S,45R)-7,8,9,12,13,14,25,26,27,30,31,32,35,45-tetradecahydroxy-4,17,22,36,39,43-hexaketo-3,18,21,40,42-pentaoxanonacyclo[27.12.3.137,41.02,20.05,10.011,16.023,28.033,44.034,38]pentatetraconta-5,7,9,11,13,15,23,25,27,29(44),30,32,37-tridecaene-35-carboxylic acid ethyl ester

> <PUBCHEM_IUPAC_INCHI>
InChI=1S/C43H30O27/c1-2-65-42(63)43(64)22-19-18-17(29(53)32(56)30(19)54)16-9(5-12(46)25(49)28(16)52)38(59)67-13-6-66-37(58)7-3-10(44)23(47)26(50)14(7)15-8(4-11(45)24(48)27(15)51)39(60)68-33(13)35(70-40(18)61)34-31(55)21(36(43)57)20(22)41(62)69-34/h3-5,13,22,31,33-35,44-56,64H,2,6H2,1H3/t13-,22-,31-,33-,34+,35-,43-/m1/s1

> <PUBCHEM_IUPAC_INCHIKEY>
WEVJRBBQIWRIDK-DOXBDXAYSA-N

> <PUBCHEM_XLOGP3_AA>
-0.1

> <PUBCHEM_EXACT_MASS>
978.097446

> <PUBCHEM_MOLECULAR_FORMULA>
C43H30O27

> <PUBCHEM_MOLECULAR_WEIGHT>
978.7

> <PUBCHEM_OPENEYE_CAN_SMILES>
CCOC(=O)C1(C2C3=C(C1=O)C(C(C4C5C(COC(=O)C6=CC(=C(C(=C6C7=C(C(=C(C=C7C(=O)O5)O)O)O)O)O)O)OC(=O)C8=CC(=C(C(=C8C9=C(C2=C(C(=C9O)O)O)C(=O)O4)O)O)O)OC3=O)O)O

> <PUBCHEM_OPENEYE_ISO_SMILES>
CCOC(=O)[C@]1([C@H]2C3=C(C1=O)[C@H]([C@@H]([C@H]4[C@H]5[C@@H](COC(=O)C6=CC(=C(C(=C6C7=C(C(=C(C=C7C(=O)O5)O)O)O)O)O)O)OC(=O)C8=CC(=C(C(=C8C9=C(C2=C(C(=C9O)O)O)C(=O)O4)O)O)O)OC3=O)O)O

> <PUBCHEM_CACTVS_TPSA>
458

> <PUBCHEM_MONOISOTOPIC_WEIGHT>
978.097446

> <PUBCHEM_TOTAL_CHARGE>
0

> <PUBCHEM_HEAVY_ATOM_COUNT>
70

> <PUBCHEM_ATOM_DEF_STEREO_COUNT>
7

> <PUBCHEM_ATOM_UDEF_STEREO_COUNT>
0

> <PUBCHEM_BOND_DEF_STEREO_COUNT>
0

> <PUBCHEM_BOND_UDEF_STEREO_COUNT>
0

> <PUBCHEM_ISOTOPIC_ATOM_COUNT>
0

> <PUBCHEM_COMPONENT_COUNT>
1

> <PUBCHEM_CACTVS_TAUTO_COUNT>
-1

> <PUBCHEM_COORDINATE_TYPE>
1
5
255

> <PUBCHEM_BONDANNOTATIONS>
28  71  6
29  3  5
31  72  6
34  74  6
36  39  8
36  42  8
37  75  5
39  44  8
33  4  5
41  76  6
42  46  8
44  47  8
46  47  8
48  49  8
48  52  8
49  54  8
52  56  8
54  57  8
55  60  8
55  63  8
56  57  8
60  64  8
61  62  8
61  67  8
62  66  8
63  65  8
64  68  8
65  68  8
66  69  8
67  70  8
69  70  8

$$$$
102390019
  -OEChem-04052116542D

 72 77  0     1  0  0  0  0  0999 V2000
    5.9023   -2.9186    0.0000 O   0  0  0  0  0  0  0  0  0  0  0  0
    5.6716   -0.7551    0.0000 O   0  0  0  0  0  0  0  0  0  0  0  0
    9.4734   -2.8248    0.0000 O   0  0  0  0  0  0  0  0  0  0  0  0
    7.1716   -1.6212    0.0000 O   0  0  0  0  0  0  0  0  0  0  0  0
    7.6311   -4.5330    0.0000 O   0  0  0  0  0  0  0  0  0  0  0  0
    3.2314   -0.9284    0.0000 O   0  0  0  0  0  0  0  0  0  0  0  0
    9.9652   -3.9128    0.0000 O   0  0  0  0  0  0  0  0  0  0  0  0
    4.3969    1.4106    0.0000 O   0  0  0  0  0  0  0  0  0  0  0  0
    6.8074   -4.2440    0.0000 O   0  0  0  0  0  0  0  0  0  0  0  0
    8.4417   -4.7368    0.0000 O   0  0  0  0  0  0  0  0  0  0  0  0
   10.1016   -1.0139    0.0000 O   0  0  0  0  0  0  0  0  0  0  0  0
    6.7680   -2.0054    0.0000 O   0  0  0  0  0  0  0  0  0  0  0  0
   10.1016    0.9861    0.0000 O   0  0  0  0  0  0  0  0  0  0  0  0
    8.5432    1.9709    0.0000 O   0  0  0  0  0  0  0  0  0  0  0  0
    2.6143    1.5529    0.0000 O   0  0  0  0  0  0  0  0  0  0  0  0
    8.8677    1.3118    0.0000 O   0  0  0  0  0  0  0  0  0  0  0  0
    4.9611    2.9160    0.0000 O   0  0  0  0  0  0  0  0  0  0  0  0
    8.9926    3.3634    0.0000 O   0  0  0  0  0  0  0  0  0  0  0  0
    7.2696    4.4842    0.0000 O   0  0  0  0  0  0  0  0  0  0  0  0
    8.3696   -2.0139    0.0000 C   0  0  1  0  0  0  0  0  0  0  0  0
    8.4899   -3.0054    0.0000 C   0  0  2  0  0  0  0  0  0  0  0  0
    6.8056   -2.9872    0.0000 C   0  0  0  0  0  0  0  0  0  0  0  0
    7.8056   -2.9872    0.0000 C   0  0  0  0  0  0  0  0  0  0  0  0
    5.3056   -2.1212    0.0000 C   0  0  1  0  0  0  0  0  0  0  0  0
    6.3056   -2.1212    0.0000 C   0  0  2  0  0  0  0  0  0  0  0  0
    4.8056   -1.2551    0.0000 C   0  0  2  0  0  0  0  0  0  0  0  0
    7.6419   -3.5330    0.0000 C   0  0  0  0  0  0  0  0  0  0  0  0
    8.3696   -1.0139    0.0000 C   0  0  0  0  0  0  0  0  0  0  0  0
    4.1364   -0.5028    0.0000 C   0  0  1  0  0  0  0  0  0  0  0  0
    6.8434   -3.2446    0.0000 C   0  0  0  0  0  0  0  0  0  0  0  0
    7.5036   -0.5139    0.0000 C   0  0  0  0  0  0  0  0  0  0  0  0
    8.9656   -3.8850    0.0000 C   0  0  0  0  0  0  0  0  0  0  0  0
    3.9838    0.4924    0.0000 C   0  0  1  0  0  0  0  0  0  0  0  0
    9.2356   -0.5139    0.0000 C   0  0  0  0  0  0  0  0  0  0  0  0
    6.6375   -1.0139    0.0000 C   0  0  0  0  0  0  0  0  0  0  0  0
    7.5036    0.4861    0.0000 C   0  0  0  0  0  0  0  0  0  0  0  0
    9.2356    0.4861    0.0000 C   0  0  0  0  0  0  0  0  0  0  0  0
    8.3696    0.9861    0.0000 C   0  0  0  0  0  0  0  0  0  0  0  0
    2.9929    0.6273    0.0000 C   0  0  0  0  0  0  0  0  0  0  0  0
    7.0937    1.4058    0.0000 C   0  0  0  0  0  0  0  0  0  0  0  0
    6.2497    1.9548    0.0000 C   0  0  0  0  0  0  0  0  0  0  0  0
    5.2429    1.9566    0.0000 C   0  0  0  0  0  0  0  0  0  0  0  0
    8.0358    1.8667    0.0000 C   0  0  0  0  0  0  0  0  0  0  0  0
   10.4409   -4.7924    0.0000 C   0  0  0  0  0  0  0  0  0  0  0  0
    6.2892    3.0028    0.0000 C   0  0  0  0  0  0  0  0  0  0  0  0
    8.0995    2.9136    0.0000 C   0  0  0  0  0  0  0  0  0  0  0  0
    7.2204    3.4854    0.0000 C   0  0  0  0  0  0  0  0  0  0  0  0
   11.4405   -4.8202    0.0000 C   0  0  0  0  0  0  0  0  0  0  0  0
    7.5487   -1.7933    0.0000 H   0  0  0  0  0  0  0  0  0  0  0  0
    4.5960   -2.5891    0.0000 H   0  0  0  0  0  0  0  0  0  0  0  0
    5.9956   -1.5842    0.0000 H   0  0  0  0  0  0  0  0  0  0  0  0
    4.0694   -1.6801    0.0000 H   0  0  0  0  0  0  0  0  0  0  0  0
    4.0119   -1.1102    0.0000 H   0  0  0  0  0  0  0  0  0  0  0  0
    3.6831    1.0346    0.0000 H   0  0  0  0  0  0  0  0  0  0  0  0
    9.6814   -2.2407    0.0000 H   0  0  0  0  0  0  0  0  0  0  0  0
    7.5701   -1.1462    0.0000 H   0  0  0  0  0  0  0  0  0  0  0  0
    2.3870    0.4958    0.0000 H   0  0  0  0  0  0  0  0  0  0  0  0
    3.0172    0.0078    0.0000 H   0  0  0  0  0  0  0  0  0  0  0  0
    2.7224   -0.5744    0.0000 H   0  0  0  0  0  0  0  0  0  0  0  0
   10.6386   -0.7039    0.0000 H   0  0  0  0  0  0  0  0  0  0  0  0
    9.8526   -4.9882    0.0000 H   0  0  0  0  0  0  0  0  0  0  0  0
   10.5315   -5.4058    0.0000 H   0  0  0  0  0  0  0  0  0  0  0  0
   10.6386    0.6761    0.0000 H   0  0  0  0  0  0  0  0  0  0  0  0
    5.7656    3.3348    0.0000 H   0  0  0  0  0  0  0  0  0  0  0  0
    9.1258    2.1829    0.0000 H   0  0  0  0  0  0  0  0  0  0  0  0
    2.0000    1.6365    0.0000 H   0  0  0  0  0  0  0  0  0  0  0  0
   11.4233   -5.4400    0.0000 H   0  0  0  0  0  0  0  0  0  0  0  0
   12.0603   -4.8375    0.0000 H   0  0  0  0  0  0  0  0  0  0  0  0
   11.4578   -4.2005    0.0000 H   0  0  0  0  0  0  0  0  0  0  0  0
    9.4235    1.5864    0.0000 H   0  0  0  0  0  0  0  0  0  0  0  0
    9.0279    3.9824    0.0000 H   0  0  0  0  0  0  0  0  0  0  0  0
    6.7486    4.8202    0.0000 H   0  0  0  0  0  0  0  0  0  0  0  0
  1 24  1  0  0  0  0
  1 30  1  0  0  0  0
  2 26  1  0  0  0  0
  2 35  1  0  0  0  0
 21  3  1  1  0  0  0
  3 55  1  0  0  0  0
 25  4  1  6  0  0  0
  4 56  1  0  0  0  0
  5 27  2  0  0  0  0
 29  6  1  6  0  0  0
  6 59  1  0  0  0  0
  7 32  1  0  0  0  0
  7 44  1  0  0  0  0
  8 33  1  0  0  0  0
  8 42  1  0  0  0  0
  9 30  2  0  0  0  0
 10 32  2  0  0  0  0
 11 34  1  0  0  0  0
 11 60  1  0  0  0  0
 12 35  2  0  0  0  0
 13 37  1  0  0  0  0
 13 63  1  0  0  0  0
 14 38  1  0  0  0  0
 14 65  1  0  0  0  0
 15 39  1  0  0  0  0
 15 66  1  0  0  0  0
 16 43  1  0  0  0  0
 16 70  1  0  0  0  0
 17 42  2  0  0  0  0
 18 46  1  0  0  0  0
 18 71  1  0  0  0  0
 19 47  1  0  0  0  0
 19 72  1  0  0  0  0
 20 21  1  0  0  0  0
 20 23  1  0  0  0  0
 20 28  1  0  0  0  0
 20 49  1  6  0  0  0
 21 27  1  0  0  0  0
 21 32  1  0  0  0  0
 22 23  2  0  0  0  0
 22 25  1  0  0  0  0
 22 27  1  0  0  0  0
 23 30  1  0  0  0  0
 24 25  1  0  0  0  0
 24 26  1  0  0  0  0
 24 50  1  1  0  0  0
 25 51  1  0  0  0  0
 26 29  1  0  0  0  0
 26 52  1  1  0  0  0
 28 31  1  0  0  0  0
 28 34  2  0  0  0  0
 29 33  1  0  0  0  0
 29 53  1  0  0  0  0
 31 35  1  0  0  0  0
 31 36  2  0  0  0  0
 33 39  1  1  0  0  0
 33 54  1  0  0  0  0
 34 37  1  0  0  0  0
 36 38  1  0  0  0  0
 36 40  1  0  0  0  0
 37 38  2  0  0  0  0
 39 57  1  0  0  0  0
 39 58  1  0  0  0  0
 40 41  1  0  0  0  0
 40 43  2  0  0  0  0
 41 42  1  0  0  0  0
 41 45  2  0  0  0  0
 43 46  1  0  0  0  0
 44 48  1  0  0  0  0
 44 61  1  0  0  0  0
 44 62  1  0  0  0  0
 45 47  1  0  0  0  0
 45 64  1  0  0  0  0
 46 47  2  0  0  0  0
 48 67  1  0  0  0  0
 48 68  1  0  0  0  0
 48 69  1  0  0  0  0
M  END
> <PUBCHEM_COMPOUND_CID>
102390019

> <PUBCHEM_COMPOUND_CANONICALIZED>
1

> <PUBCHEM_CACTVS_COMPLEXITY>
1430

> <PUBCHEM_CACTVS_HBOND_ACCEPTOR>
19

> <PUBCHEM_CACTVS_HBOND_DONOR>
10

> <PUBCHEM_CACTVS_ROTATABLE_BOND>
4

> <PUBCHEM_CACTVS_SUBSKEYS>
AAADceB4PgAAAAAAAAAAAAAAAAAAAQAAAAAwYIAAAAAAAACRQAAAGgAACAAADVSgmAIyDoAABgCIAqDSCAICAAAkIAAAiAFGiMgJNzaKNBqCcQEl4BULuYfK7vzuoAADCAAYQABAAAYQADCAAAAAAAAAAA==

> <PUBCHEM_IUPAC_OPENEYE_NAME>
ethyl (1S,2S,8R,9R,23R,24R,28R)-8,11,12,13,16,17,18,24,28-nonahydroxy-23-(hydroxymethyl)-4,7,21,26-tetraoxo-3,22,25-trioxahexacyclo[12.10.3.12,6.05,9.010,27.015,20]octacosa-5,10,12,14(27),15,17,19-heptaene-8-carboxylate

> <PUBCHEM_IUPAC_CAS_NAME>
(1S,2S,8R,9R,23R,24R,28R)-8,11,12,13,16,17,18,24,28-nonahydroxy-23-(hydroxymethyl)-4,7,21,26-tetraoxo-3,22,25-trioxahexacyclo[12.10.3.12,6.05,9.010,27.015,20]octacosa-5,10,12,14(27),15,17,19-heptaene-8-carboxylic acid ethyl ester

> <PUBCHEM_IUPAC_NAME_MARKUP>
ethyl (1<I>S</I>,2<I>S</I>,8<I>R</I>,9<I>R</I>,23<I>R</I>,24<I>R</I>,28<I>R</I>)-8,11,12,13,16,17,18,24,28-nonahydroxy-23-(hydroxymethyl)-4,7,21,26-tetraoxo-3,22,25-trioxahexacyclo[12.10.3.1<SUP>2,6</SUP>.0<SUP>5,9</SUP>.0<SUP>10,27</SUP>.0<SUP>15,20</SUP>]octacosa-5,10,12,14(27),15,17,19-heptaene-8-carboxylate

> <PUBCHEM_IUPAC_NAME>
ethyl (1S,2S,8R,9R,23R,24R,28R)-8,11,12,13,16,17,18,24,28-nonahydroxy-23-(hydroxymethyl)-4,7,21,26-tetraoxo-3,22,25-trioxahexacyclo[12.10.3.12,6.05,9.010,27.015,20]octacosa-5,10,12,14(27),15,17,19-heptaene-8-carboxylate

> <PUBCHEM_IUPAC_SYSTEMATIC_NAME>
ethyl (1S,2S,8R,9R,23R,24R,28R)-23-(hydroxymethyl)-8,11,12,13,16,17,18,24,28-nonakis(oxidanyl)-4,7,21,26-tetrakis(oxidanylidene)-3,22,25-trioxahexacyclo[12.10.3.12,6.05,9.010,27.015,20]octacosa-5,10,12,14(27),15,17,19-heptaene-8-carboxylate

> <PUBCHEM_IUPAC_TRADITIONAL_NAME>
(1S,2S,8R,9R,23R,24R,28R)-8,11,12,13,16,17,18,24,28-nonahydroxy-4,7,21,26-tetraketo-23-methylol-3,22,25-trioxahexacyclo[12.10.3.12,6.05,9.010,27.015,20]octacosa-5,10,12,14(27),15,17,19-heptaene-8-carboxylic acid ethyl ester

> <PUBCHEM_IUPAC_INCHI>
InChI=1S/C29H24O19/c1-2-45-28(43)29(44)14-11-10-9(18(35)21(38)19(11)36)8-5(3-6(31)15(32)17(8)34)25(40)46-7(4-30)16(33)22(47-26(10)41)23-20(37)13(24(29)39)12(14)27(42)48-23/h3,7,14,16,20,22-23,30-38,44H,2,4H2,1H3/t7-,14-,16-,20-,22+,23+,29-/m1/s1

> <PUBCHEM_IUPAC_INCHIKEY>
ZSJCDGARBNYDMF-PTOWXYSDSA-N

> <PUBCHEM_XLOGP3_AA>
-1.6

> <PUBCHEM_EXACT_MASS>
676.091179

> <PUBCHEM_MOLECULAR_FORMULA>
C29H24O19

> <PUBCHEM_MOLECULAR_WEIGHT>
676.5

> <PUBCHEM_OPENEYE_CAN_SMILES>
CCOC(=O)C1(C2C3=C(C1=O)C(C(C4C(C(OC(=O)C5=CC(=C(C(=C5C6=C(C2=C(C(=C6O)O)O)C(=O)O4)O)O)O)CO)O)OC3=O)O)O

> <PUBCHEM_OPENEYE_ISO_SMILES>
CCOC(=O)[C@]1([C@H]2C3=C(C1=O)[C@H]([C@@H]([C@@H]4[C@@H]([C@H](OC(=O)C5=CC(=C(C(=C5C6=C(C2=C(C(=C6O)O)O)C(=O)O4)O)O)O)CO)O)OC3=O)O)O

> <PUBCHEM_CACTVS_TPSA>
325

> <PUBCHEM_MONOISOTOPIC_WEIGHT>
676.091179

> <PUBCHEM_TOTAL_CHARGE>
0

> <PUBCHEM_HEAVY_ATOM_COUNT>
48

> <PUBCHEM_ATOM_DEF_STEREO_COUNT>
7

> <PUBCHEM_ATOM_UDEF_STEREO_COUNT>
0

> <PUBCHEM_BOND_DEF_STEREO_COUNT>
0

> <PUBCHEM_BOND_UDEF_STEREO_COUNT>
0

> <PUBCHEM_ISOTOPIC_ATOM_COUNT>
0

> <PUBCHEM_COMPONENT_COUNT>
1

> <PUBCHEM_CACTVS_TAUTO_COUNT>
-1

> <PUBCHEM_COORDINATE_TYPE>
1
5
255

> <PUBCHEM_BONDANNOTATIONS>
20  49  6
24  50  5
26  52  5
28  31  8
28  34  8
21  3  5
31  36  8
33  39  5
34  37  8
36  38  8
37  38  8
25  4  6
40  41  8
40  43  8
41  45  8
43  46  8
45  47  8
46  47  8
29  6  6

$$$$
90659063
  -OEChem-04052116542D

 54 56  0     1  0  0  0  0  0999 V2000
    8.0622   -1.5950    0.0000 I   0  0  0  0  0  0  0  0  0  0  0  0
    6.3301    3.4050    0.0000 I   0  0  0  0  0  0  0  0  0  0  0  0
    8.0622    0.4050    0.0000 I   0  0  0  0  0  0  0  0  0  0  0  0
    4.5981   -2.5950    0.0000 O   0  0  0  0  0  0  0  0  0  0  0  0
    4.5981   -5.5950    0.0000 O   0  0  0  0  0  0  0  0  0  0  0  0
    6.3301   -2.5950    0.0000 O   0  0  0  0  0  0  0  0  0  0  0  0
    2.8660   -4.5950    0.0000 O   0  0  0  0  0  0  0  0  0  0  0  0
    6.3301   -4.5950    0.0000 O   0  0  0  0  0  0  0  0  0  0  0  0
    2.0000   -3.0950    0.0000 O   0  5  0  0  0  0  0  0  0  0  0  0
    2.8660   -1.5950    0.0000 O   0  0  0  0  0  0  0  0  0  0  0  0
    6.3301    1.4050    0.0000 O   0  0  0  0  0  0  0  0  0  0  0  0
    8.9282    5.9050    0.0000 O   0  5  0  0  0  0  0  0  0  0  0  0
    8.0622    4.4050    0.0000 O   0  0  0  0  0  0  0  0  0  0  0  0
   10.6603    4.9050    0.0000 N   0  3  0  0  0  0  0  0  0  0  0  0
    4.5981   -4.5950    0.0000 C   0  0  1  0  0  0  0  0  0  0  0  0
    3.7320   -4.0950    0.0000 C   0  0  1  0  0  0  0  0  0  0  0  0
    5.4641   -4.0950    0.0000 C   0  0  2  0  0  0  0  0  0  0  0  0
    3.7320   -3.0950    0.0000 C   0  0  1  0  0  0  0  0  0  0  0  0
    5.4641   -3.0950    0.0000 C   0  0  1  0  0  0  0  0  0  0  0  0
    2.8660   -2.5950    0.0000 C   0  0  0  0  0  0  0  0  0  0  0  0
    6.3301   -1.5950    0.0000 C   0  0  0  0  0  0  0  0  0  0  0  0
    7.1962   -1.0950    0.0000 C   0  0  0  0  0  0  0  0  0  0  0  0
    5.4641   -1.0950    0.0000 C   0  0  0  0  0  0  0  0  0  0  0  0
    9.7942    3.4050    0.0000 C   0  0  0  0  0  0  0  0  0  0  0  0
    9.7942    4.4050    0.0000 C   0  0  1  0  0  0  0  0  0  0  0  0
    8.9282    2.9050    0.0000 C   0  0  0  0  0  0  0  0  0  0  0  0
    7.1962   -0.0950    0.0000 C   0  0  0  0  0  0  0  0  0  0  0  0
    5.4641   -0.0950    0.0000 C   0  0  0  0  0  0  0  0  0  0  0  0
    6.3301    0.4050    0.0000 C   0  0  0  0  0  0  0  0  0  0  0  0
    8.9282    1.9050    0.0000 C   0  0  0  0  0  0  0  0  0  0  0  0
    8.0622    3.4050    0.0000 C   0  0  0  0  0  0  0  0  0  0  0  0
    7.1962    1.9050    0.0000 C   0  0  0  0  0  0  0  0  0  0  0  0
    7.1962    2.9050    0.0000 C   0  0  0  0  0  0  0  0  0  0  0  0
    8.0622    1.4050    0.0000 C   0  0  0  0  0  0  0  0  0  0  0  0
    8.9282    4.9050    0.0000 C   0  0  0  0  0  0  0  0  0  0  0  0
    5.1350   -4.9050    0.0000 H   0  0  0  0  0  0  0  0  0  0  0  0
    3.1951   -3.7850    0.0000 H   0  0  0  0  0  0  0  0  0  0  0  0
    6.0010   -3.7850    0.0000 H   0  0  0  0  0  0  0  0  0  0  0  0
    3.7320   -2.4750    0.0000 H   0  0  0  0  0  0  0  0  0  0  0  0
    5.4641   -2.4750    0.0000 H   0  0  0  0  0  0  0  0  0  0  0  0
    4.0611   -5.9050    0.0000 H   0  0  0  0  0  0  0  0  0  0  0  0
    2.8660   -5.2150    0.0000 H   0  0  0  0  0  0  0  0  0  0  0  0
    6.3301   -5.2150    0.0000 H   0  0  0  0  0  0  0  0  0  0  0  0
    4.9272   -1.4050    0.0000 H   0  0  0  0  0  0  0  0  0  0  0  0
   10.0063    2.8224    0.0000 H   0  0  0  0  0  0  0  0  0  0  0  0
   10.4048    3.5127    0.0000 H   0  0  0  0  0  0  0  0  0  0  0  0
    9.7942    5.0250    0.0000 H   0  0  0  0  0  0  0  0  0  0  0  0
    7.7331    0.2150    0.0000 H   0  0  0  0  0  0  0  0  0  0  0  0
    4.9272    0.2150    0.0000 H   0  0  0  0  0  0  0  0  0  0  0  0
   11.1972    5.2150    0.0000 H   0  0  0  0  0  0  0  0  0  0  0  0
   10.3503    5.4419    0.0000 H   0  0  0  0  0  0  0  0  0  0  0  0
   10.9703    4.3681    0.0000 H   0  0  0  0  0  0  0  0  0  0  0  0
    9.4651    1.5950    0.0000 H   0  0  0  0  0  0  0  0  0  0  0  0
    8.0622    4.0250    0.0000 H   0  0  0  0  0  0  0  0  0  0  0  0
  1 22  1  0  0  0  0
  2 33  1  0  0  0  0
  3 34  1  0  0  0  0
  4 18  1  0  0  0  0
  4 19  1  0  0  0  0
 15  5  1  1  0  0  0
  5 41  1  0  0  0  0
 19  6  1  1  0  0  0
  6 21  1  0  0  0  0
 16  7  1  6  0  0  0
  7 42  1  0  0  0  0
 17  8  1  6  0  0  0
  8 43  1  0  0  0  0
  9 20  1  0  0  0  0
 10 20  2  0  0  0  0
 11 29  1  0  0  0  0
 11 32  1  0  0  0  0
 12 35  1  0  0  0  0
 13 35  2  0  0  0  0
 25 14  1  1  0  0  0
 14 50  1  0  0  0  0
 14 51  1  0  0  0  0
 14 52  1  0  0  0  0
 15 16  1  0  0  0  0
 15 17  1  0  0  0  0
 15 36  1  0  0  0  0
 16 18  1  0  0  0  0
 16 37  1  0  0  0  0
 17 19  1  0  0  0  0
 17 38  1  0  0  0  0
 18 20  1  1  0  0  0
 18 39  1  0  0  0  0
 19 40  1  0  0  0  0
 21 22  2  0  0  0  0
 21 23  1  0  0  0  0
 22 27  1  0  0  0  0
 23 28  2  0  0  0  0
 23 44  1  0  0  0  0
 24 25  1  0  0  0  0
 24 26  1  0  0  0  0
 24 45  1  0  0  0  0
 24 46  1  0  0  0  0
 25 35  1  0  0  0  0
 25 47  1  0  0  0  0
 26 30  2  0  0  0  0
 26 31  1  0  0  0  0
 27 29  2  0  0  0  0
 27 48  1  0  0  0  0
 28 29  1  0  0  0  0
 28 49  1  0  0  0  0
 30 34  1  0  0  0  0
 30 53  1  0  0  0  0
 31 33  2  0  0  0  0
 31 54  1  0  0  0  0
 32 33  1  0  0  0  0
 32 34  2  0  0  0  0
M  CHG  3   9  -1  12  -1  14   1
M  END
> <PUBCHEM_COMPOUND_CID>
90659063

> <PUBCHEM_COMPOUND_CANONICALIZED>
1

> <PUBCHEM_CACTVS_COMPLEXITY>
727

> <PUBCHEM_CACTVS_HBOND_ACCEPTOR>
10

> <PUBCHEM_CACTVS_HBOND_DONOR>
4

> <PUBCHEM_CACTVS_ROTATABLE_BOND>
6

> <PUBCHEM_CACTVS_SUBSKEYS>
AAADceB6PAAAAwAAAAAAAAAAAAAAAAAAAAA0YIAAAAAAAAABQAAAHgAwCAAADDzzmAcwDoBABgCIAiDSCAICCAAgIAAIiIHGCIgfNjaEsR+ieCCl8BEPqAfa7KzOIQAAAAAAAABCAAAAAAAAAAAAAAAAAA==

> <PUBCHEM_IUPAC_OPENEYE_NAME>
(2S,3S,4S,5R,6S)-6-[4-[4-[(2S)-2-azaniumyl-2-carboxylato-ethyl]-2,6-diiodo-phenoxy]-2-iodo-phenoxy]-3,4,5-trihydroxy-tetrahydropyran-2-carboxylate

> <PUBCHEM_IUPAC_CAS_NAME>
(2S,3S,4S,5R,6S)-6-[4-[4-[(2S)-2-ammonio-2-carboxylatoethyl]-2,6-diiodophenoxy]-2-iodophenoxy]-3,4,5-trihydroxy-2-oxanecarboxylate

> <PUBCHEM_IUPAC_NAME_MARKUP>
(2<I>S</I>,3<I>S</I>,4<I>S</I>,5<I>R</I>,6<I>S</I>)-6-[4-[4-[(2<I>S</I>)-2-azaniumyl-2-carboxylatoethyl]-2,6-diiodophenoxy]-2-iodophenoxy]-3,4,5-trihydroxyoxane-2-carboxylate

> <PUBCHEM_IUPAC_NAME>
(2S,3S,4S,5R,6S)-6-[4-[4-[(2S)-2-azaniumyl-2-carboxylatoethyl]-2,6-diiodophenoxy]-2-iodophenoxy]-3,4,5-trihydroxyoxane-2-carboxylate

> <PUBCHEM_IUPAC_SYSTEMATIC_NAME>
(2S,3S,4S,5R,6S)-6-[4-[4-[(2S)-2-azaniumyl-3-oxidanidyl-3-oxidanylidene-propyl]-2,6-bis(iodanyl)phenoxy]-2-iodanyl-phenoxy]-3,4,5-tris(oxidanyl)oxane-2-carboxylate

> <PUBCHEM_IUPAC_TRADITIONAL_NAME>
(2S,3S,4S,5R,6S)-6-[4-[4-[(2S)-2-ammonio-2-carboxylato-ethyl]-2,6-diiodo-phenoxy]-2-iodo-phenoxy]-3,4,5-trihydroxy-tetrahydropyran-2-carboxylate

> <PUBCHEM_IUPAC_INCHI>
InChI=1S/C21H20I3NO10/c22-9-6-8(33-17-10(23)3-7(4-11(17)24)5-12(25)19(29)30)1-2-13(9)34-21-16(28)14(26)15(27)18(35-21)20(31)32/h1-4,6,12,14-16,18,21,26-28H,5,25H2,(H,29,30)(H,31,32)/p-1/t12-,14-,15-,16+,18-,21+/m0/s1

> <PUBCHEM_IUPAC_INCHIKEY>
YYFGGGCINNGOLE-ZDXOGFQLSA-M

> <PUBCHEM_XLOGP3_AA>
1.5

> <PUBCHEM_EXACT_MASS>
825.8143

> <PUBCHEM_MOLECULAR_FORMULA>
C21H19I3NO10-

> <PUBCHEM_MOLECULAR_WEIGHT>
826.1

> <PUBCHEM_OPENEYE_CAN_SMILES>
C1=CC(=C(C=C1OC2=C(C=C(C=C2I)CC(C(=O)[O-])[NH3+])I)I)OC3C(C(C(C(O3)C(=O)[O-])O)O)O

> <PUBCHEM_OPENEYE_ISO_SMILES>
C1=CC(=C(C=C1OC2=C(C=C(C=C2I)C[C@@H](C(=O)[O-])[NH3+])I)I)O[C@H]3[C@@H]([C@H]([C@@H]([C@H](O3)C(=O)[O-])O)O)O

> <PUBCHEM_CACTVS_TPSA>
196

> <PUBCHEM_MONOISOTOPIC_WEIGHT>
825.8143

> <PUBCHEM_TOTAL_CHARGE>
-1

> <PUBCHEM_HEAVY_ATOM_COUNT>
35

> <PUBCHEM_ATOM_DEF_STEREO_COUNT>
6

> <PUBCHEM_ATOM_UDEF_STEREO_COUNT>
0

> <PUBCHEM_BOND_DEF_STEREO_COUNT>
0

> <PUBCHEM_BOND_UDEF_STEREO_COUNT>
0

> <PUBCHEM_ISOTOPIC_ATOM_COUNT>
0

> <PUBCHEM_COMPONENT_COUNT>
1

> <PUBCHEM_CACTVS_TAUTO_COUNT>
-1

> <PUBCHEM_COORDINATE_TYPE>
1
5
255

> <PUBCHEM_BONDANNOTATIONS>
25  14  5
18  20  5
21  22  8
21  23  8
22  27  8
23  28  8
26  30  8
26  31  8
27  29  8
28  29  8
30  34  8
31  33  8
32  33  8
32  34  8
15  5  5
19  6  5
16  7  6
17  8  6

$$$$
90657160
  -OEChem-04052116542D

 61 63  0     1  0  0  0  0  0999 V2000
    4.5981   -0.0771    0.0000 O   0  0  0  0  0  0  0  0  0  0  0  0
    6.3301   -0.0771    0.0000 O   0  0  0  0  0  0  0  0  0  0  0  0
    4.5981   -3.0770    0.0000 O   0  0  0  0  0  0  0  0  0  0  0  0
    6.3301   -2.0770    0.0000 O   0  0  0  0  0  0  0  0  0  0  0  0
    2.8660   -2.0770    0.0000 O   0  0  0  0  0  0  0  0  0  0  0  0
    5.2553    2.8529    0.0000 O   0  0  0  0  0  0  0  0  0  0  0  0
    9.3301    1.6550    0.0000 O   0  0  0  0  0  0  0  0  0  0  0  0
    2.0000   -0.5771    0.0000 O   0  5  0  0  0  0  0  0  0  0  0  0
    2.8660    0.9229    0.0000 O   0  0  0  0  0  0  0  0  0  0  0  0
    4.6140    1.1964    0.0000 O   0  0  0  0  0  0  0  0  0  0  0  0
   12.8301   -2.6751    0.0000 O   0  5  0  0  0  0  0  0  0  0  0  0
   12.8301   -0.9431    0.0000 O   0  0  0  0  0  0  0  0  0  0  0  0
    4.5981   -2.0770    0.0000 C   0  0  2  0  0  0  0  0  0  0  0  0
    5.4641   -1.5770    0.0000 C   0  0  2  0  0  0  0  0  0  0  0  0
    3.7320   -1.5770    0.0000 C   0  0  1  0  0  0  0  0  0  0  0  0
    5.4641   -0.5771    0.0000 C   0  0  1  0  0  0  0  0  0  0  0  0
    3.7320   -0.5771    0.0000 C   0  0  1  0  0  0  0  0  0  0  0  0
    6.8301    0.7890    0.0000 C   0  0  0  0  0  0  0  0  0  0  0  0
    6.3301    1.6550    0.0000 C   0  0  0  0  0  0  0  0  0  0  0  0
    7.8301    0.7890    0.0000 C   0  0  0  0  0  0  0  0  0  0  0  0
    6.8301    2.5210    0.0000 C   0  0  0  0  0  0  0  0  0  0  0  0
    2.8660   -0.0771    0.0000 C   0  0  0  0  0  0  0  0  0  0  0  0
    7.8301    2.5210    0.0000 C   0  0  0  0  0  0  0  0  0  0  0  0
    8.3301    1.6550    0.0000 C   0  0  0  0  0  0  0  0  0  0  0  0
    8.3301   -0.0771    0.0000 C   0  0  0  0  0  0  0  0  0  0  0  0
    6.1630    3.2580    0.0000 C   0  0  0  0  0  0  0  0  0  0  0  0
    5.3583    1.8642    0.0000 C   0  0  0  0  0  0  0  0  0  0  0  0
    8.3301    3.3870    0.0000 C   0  0  0  0  0  0  0  0  0  0  0  0
    9.3301   -0.0771    0.0000 C   0  0  0  0  0  0  0  0  0  0  0  0
    9.8301   -0.9431    0.0000 C   0  0  0  0  0  0  0  0  0  0  0  0
   10.8301   -0.9431    0.0000 C   0  0  0  0  0  0  0  0  0  0  0  0
    9.8301    2.5210    0.0000 C   0  0  0  0  0  0  0  0  0  0  0  0
    9.3301   -1.8091    0.0000 C   0  0  0  0  0  0  0  0  0  0  0  0
   11.3301   -1.8091    0.0000 C   0  0  0  0  0  0  0  0  0  0  0  0
   12.3301   -1.8091    0.0000 C   0  0  0  0  0  0  0  0  0  0  0  0
    4.0611   -2.3870    0.0000 H   0  0  0  0  0  0  0  0  0  0  0  0
    6.0010   -1.2670    0.0000 H   0  0  0  0  0  0  0  0  0  0  0  0
    3.1951   -1.2670    0.0000 H   0  0  0  0  0  0  0  0  0  0  0  0
    5.4641    0.0429    0.0000 H   0  0  0  0  0  0  0  0  0  0  0  0
    3.7320    0.0429    0.0000 H   0  0  0  0  0  0  0  0  0  0  0  0
    4.0611   -3.3870    0.0000 H   0  0  0  0  0  0  0  0  0  0  0  0
    6.3301   -2.6970    0.0000 H   0  0  0  0  0  0  0  0  0  0  0  0
    2.8660   -2.6970    0.0000 H   0  0  0  0  0  0  0  0  0  0  0  0
    7.7475   -0.2891    0.0000 H   0  0  0  0  0  0  0  0  0  0  0  0
    8.4378   -0.6876    0.0000 H   0  0  0  0  0  0  0  0  0  0  0  0
    6.6639    3.6235    0.0000 H   0  0  0  0  0  0  0  0  0  0  0  0
    5.8523    3.7945    0.0000 H   0  0  0  0  0  0  0  0  0  0  0  0
    8.8671    3.0770    0.0000 H   0  0  0  0  0  0  0  0  0  0  0  0
    8.6401    3.9240    0.0000 H   0  0  0  0  0  0  0  0  0  0  0  0
    7.7932    3.6970    0.0000 H   0  0  0  0  0  0  0  0  0  0  0  0
    9.6401    0.4599    0.0000 H   0  0  0  0  0  0  0  0  0  0  0  0
   11.4127   -0.7310    0.0000 H   0  0  0  0  0  0  0  0  0  0  0  0
   10.7225   -0.3325    0.0000 H   0  0  0  0  0  0  0  0  0  0  0  0
   10.3671    2.2110    0.0000 H   0  0  0  0  0  0  0  0  0  0  0  0
   10.1401    3.0580    0.0000 H   0  0  0  0  0  0  0  0  0  0  0  0
    9.2932    2.8310    0.0000 H   0  0  0  0  0  0  0  0  0  0  0  0
    8.7932   -1.4991    0.0000 H   0  0  0  0  0  0  0  0  0  0  0  0
    9.0201   -2.3460    0.0000 H   0  0  0  0  0  0  0  0  0  0  0  0
    9.8671   -2.1191    0.0000 H   0  0  0  0  0  0  0  0  0  0  0  0
   10.7475   -2.0212    0.0000 H   0  0  0  0  0  0  0  0  0  0  0  0
   11.4378   -2.4197    0.0000 H   0  0  0  0  0  0  0  0  0  0  0  0
  1 16  1  0  0  0  0
  1 17  1  0  0  0  0
 16  2  1  1  0  0  0
  2 18  1  0  0  0  0
 13  3  1  1  0  0  0
  3 41  1  0  0  0  0
 14  4  1  6  0  0  0
  4 42  1  0  0  0  0
 15  5  1  6  0  0  0
  5 43  1  0  0  0  0
  6 26  1  0  0  0  0
  6 27  1  0  0  0  0
  7 24  1  0  0  0  0
  7 32  1  0  0  0  0
  8 22  1  0  0  0  0
  9 22  2  0  0  0  0
 10 27  2  0  0  0  0
 11 35  1  0  0  0  0
 12 35  2  0  0  0  0
 13 14  1  0  0  0  0
 13 15  1  0  0  0  0
 13 36  1  0  0  0  0
 14 16  1  0  0  0  0
 14 37  1  0  0  0  0
 15 17  1  0  0  0  0
 15 38  1  0  0  0  0
 16 39  1  0  0  0  0
 17 22  1  1  0  0  0
 17 40  1  0  0  0  0
 18 19  2  0  0  0  0
 18 20  1  0  0  0  0
 19 21  1  0  0  0  0
 19 27  1  0  0  0  0
 20 24  2  0  0  0  0
 20 25  1  0  0  0  0
 21 23  2  0  0  0  0
 21 26  1  0  0  0  0
 23 24  1  0  0  0  0
 23 28  1  0  0  0  0
 25 29  1  0  0  0  0
 25 44  1  0  0  0  0
 25 45  1  0  0  0  0
 26 46  1  0  0  0  0
 26 47  1  0  0  0  0
 28 48  1  0  0  0  0
 28 49  1  0  0  0  0
 28 50  1  0  0  0  0
 29 30  2  0  0  0  0
 29 51  1  0  0  0  0
 30 31  1  0  0  0  0
 30 33  1  0  0  0  0
 31 34  1  0  0  0  0
 31 52  1  0  0  0  0
 31 53  1  0  0  0  0
 32 54  1  0  0  0  0
 32 55  1  0  0  0  0
 32 56  1  0  0  0  0
 33 57  1  0  0  0  0
 33 58  1  0  0  0  0
 33 59  1  0  0  0  0
 34 35  1  0  0  0  0
 34 60  1  0  0  0  0
 34 61  1  0  0  0  0
M  CHG  2   8  -1  11  -1
M  END
> <PUBCHEM_COMPOUND_CID>
90657160

> <PUBCHEM_COMPOUND_CANONICALIZED>
1

> <PUBCHEM_CACTVS_COMPLEXITY>
816

> <PUBCHEM_CACTVS_HBOND_ACCEPTOR>
12

> <PUBCHEM_CACTVS_HBOND_DONOR>
3

> <PUBCHEM_CACTVS_ROTATABLE_BOND>
7

> <PUBCHEM_CACTVS_SUBSKEYS>
AAADceB4PAAAAAAAAAAAAAAAAAAAASAAAAA0QAAAAAAAAEgBAAAAGgAACAAADBSwmAMCDoAABgCIAiDSCAICCAAkIAAAiAFECMgdNzaENR6ieWCl4BUPqQfK7PzO4AADCAAYAADAAAYQADAAAAAAAAAAAA==

> <PUBCHEM_IUPAC_OPENEYE_NAME>
(2S,3S,4S,5R,6S)-6-[[5-[(E)-5-carboxylato-3-methyl-pent-2-enyl]-6-methoxy-7-methyl-3-oxo-1H-isobenzofuran-4-yl]oxy]-3,4,5-trihydroxy-tetrahydropyran-2-carboxylate

> <PUBCHEM_IUPAC_CAS_NAME>
(2S,3S,4S,5R,6S)-6-[[5-[(E)-5-carboxylato-3-methylpent-2-enyl]-6-methoxy-7-methyl-3-oxo-1H-isobenzofuran-4-yl]oxy]-3,4,5-trihydroxy-2-oxanecarboxylate

> <PUBCHEM_IUPAC_NAME_MARKUP>
(2<I>S</I>,3<I>S</I>,4<I>S</I>,5<I>R</I>,6<I>S</I>)-6-[[5-[(<I>E</I>)-5-carboxylato-3-methylpent-2-enyl]-6-methoxy-7-methyl-3-oxo-1<I>H</I>-2-benzofuran-4-yl]oxy]-3,4,5-trihydroxyoxane-2-carboxylate

> <PUBCHEM_IUPAC_NAME>
(2S,3S,4S,5R,6S)-6-[[5-[(E)-5-carboxylato-3-methylpent-2-enyl]-6-methoxy-7-methyl-3-oxo-1H-2-benzofuran-4-yl]oxy]-3,4,5-trihydroxyoxane-2-carboxylate

> <PUBCHEM_IUPAC_SYSTEMATIC_NAME>
(2S,3S,4S,5R,6S)-6-[[6-methoxy-7-methyl-5-[(E)-3-methyl-6-oxidanidyl-6-oxidanylidene-hex-2-enyl]-3-oxidanylidene-1H-2-benzofuran-4-yl]oxy]-3,4,5-tris(oxidanyl)oxane-2-carboxylate

> <PUBCHEM_IUPAC_TRADITIONAL_NAME>
(2S,3S,4S,5R,6S)-6-[5-[(E)-5-carboxylato-3-methyl-pent-2-enyl]-3-keto-6-methoxy-7-methyl-phthalan-4-yl]oxy-3,4,5-trihydroxy-tetrahydropyran-2-carboxylate

> <PUBCHEM_IUPAC_INCHI>
InChI=1S/C23H28O12/c1-9(5-7-13(24)25)4-6-11-18(32-3)10(2)12-8-33-22(31)14(12)19(11)34-23-17(28)15(26)16(27)20(35-23)21(29)30/h4,15-17,20,23,26-28H,5-8H2,1-3H3,(H,24,25)(H,29,30)/p-2/b9-4+/t15-,16-,17+,20-,23+/m0/s1

> <PUBCHEM_IUPAC_INCHIKEY>
BYFGTSAYQQIUCN-HGIHDBQLSA-L

> <PUBCHEM_XLOGP3_AA>
2.4

> <PUBCHEM_EXACT_MASS>
494.142426

> <PUBCHEM_MOLECULAR_FORMULA>
C23H26O12-2

> <PUBCHEM_MOLECULAR_WEIGHT>
494.4

> <PUBCHEM_OPENEYE_CAN_SMILES>
CC1=C2COC(=O)C2=C(C(=C1OC)CC=C(C)CCC(=O)[O-])OC3C(C(C(C(O3)C(=O)[O-])O)O)O

> <PUBCHEM_OPENEYE_ISO_SMILES>
CC1=C2COC(=O)C2=C(C(=C1OC)C/C=C(\C)/CCC(=O)[O-])O[C@H]3[C@@H]([C@H]([C@@H]([C@H](O3)C(=O)[O-])O)O)O

> <PUBCHEM_CACTVS_TPSA>
195

> <PUBCHEM_MONOISOTOPIC_WEIGHT>
494.142426

> <PUBCHEM_TOTAL_CHARGE>
-2

> <PUBCHEM_HEAVY_ATOM_COUNT>
35

> <PUBCHEM_ATOM_DEF_STEREO_COUNT>
5

> <PUBCHEM_ATOM_UDEF_STEREO_COUNT>
0

> <PUBCHEM_BOND_DEF_STEREO_COUNT>
1

> <PUBCHEM_BOND_UDEF_STEREO_COUNT>
0

> <PUBCHEM_ISOTOPIC_ATOM_COUNT>
0

> <PUBCHEM_COMPONENT_COUNT>
1

> <PUBCHEM_CACTVS_TAUTO_COUNT>
-1

> <PUBCHEM_COORDINATE_TYPE>
1
5
255

> <PUBCHEM_BONDANNOTATIONS>
17  22  5
18  19  8
18  20  8
19  21  8
16  2  5
20  24  8
21  23  8
23  24  8
13  3  5
14  4  6
15  5  6

$$$$
73981632
  -OEChem-04052116542D

 72 76  0     1  0  0  0  0  0999 V2000
    6.9026    4.7819    0.0000 O   0  0  0  0  0  0  0  0  0  0  0  0
    5.1350   -4.2873    0.0000 O   0  0  0  0  0  0  0  0  0  0  0  0
    9.4987    4.2719    0.0000 O   0  0  0  0  0  0  0  0  0  0  0  0
    9.5064    6.2719    0.0000 O   0  0  0  0  0  0  0  0  0  0  0  0
    7.7782    7.2785    0.0000 O   0  0  0  0  0  0  0  0  0  0  0  0
    6.8671   -4.2873    0.0000 O   0  0  0  0  0  0  0  0  0  0  0  0
    3.4030   -6.2873    0.0000 O   0  0  0  0  0  0  0  0  0  0  0  0
    5.1350   -7.2873    0.0000 O   0  0  0  0  0  0  0  0  0  0  0  0
    6.8671   -6.2873    0.0000 O   0  0  0  0  0  0  0  0  0  0  0  0
    6.0462    7.2852    0.0000 O   0  0  0  0  0  0  0  0  0  0  0  0
    6.0308    3.2852    0.0000 O   0  0  0  0  0  0  0  0  0  0  0  0
    2.5369   -4.7873    0.0000 O   0  0  0  0  0  0  0  0  0  0  0  0
    9.4948    3.2719    0.0000 O   0  0  0  0  0  0  0  0  0  0  0  0
    7.7671    0.2370    0.0000 O   0  0  0  0  0  0  0  0  0  0  0  0
    5.1208    1.7919    0.0000 O   0  0  0  0  0  0  0  0  0  0  0  0
    8.6346    4.7752    0.0000 C   0  0  3  0  0  0  0  0  0  0  0  0
    8.6384    5.7752    0.0000 C   0  0  3  0  0  0  0  0  0  0  0  0
    7.7666    4.2786    0.0000 C   0  0  3  0  0  0  0  0  0  0  0  0
    7.7744    6.2785    0.0000 C   0  0  3  0  0  0  0  0  0  0  0  0
    6.9064    5.7819    0.0000 C   0  0  3  0  0  0  0  0  0  0  0  0
    4.2690   -5.7873    0.0000 C   0  0  3  0  0  0  0  0  0  0  0  0
    5.1350   -6.2873    0.0000 C   0  0  3  0  0  0  0  0  0  0  0  0
    7.7628    3.2786    0.0000 C   0  0  0  0  0  0  0  0  0  0  0  0
    4.2690   -4.7873    0.0000 C   0  0  3  0  0  0  0  0  0  0  0  0
    6.0010   -5.7873    0.0000 C   0  0  3  0  0  0  0  0  0  0  0  0
    6.0423    6.2852    0.0000 C   0  0  0  0  0  0  0  0  0  0  0  0
    6.0010   -4.7873    0.0000 C   0  0  3  0  0  0  0  0  0  0  0  0
    6.8948    2.7819    0.0000 C   0  0  0  0  0  0  0  0  0  0  0  0
    3.4030   -4.2873    0.0000 C   0  0  0  0  0  0  0  0  0  0  0  0
    8.6269    2.7752    0.0000 C   0  0  0  0  0  0  0  0  0  0  0  0
    6.8910    1.7819    0.0000 C   0  0  0  0  0  0  0  0  0  0  0  0
    8.6230    1.7752    0.0000 C   0  0  0  0  0  0  0  0  0  0  0  0
    7.7551    1.2786    0.0000 C   0  0  0  0  0  0  0  0  0  0  0  0
    6.8671   -3.2873    0.0000 C   0  0  0  0  0  0  0  0  0  0  0  0
    5.9790    1.2786    0.0000 C   0  0  0  0  0  0  0  0  0  0  0  0
    6.8671   -0.2873    0.0000 C   0  0  0  0  0  0  0  0  0  0  0  0
    5.9670    0.2370    0.0000 C   0  0  0  0  0  0  0  0  0  0  0  0
    6.8671   -1.2873    0.0000 C   0  0  0  0  0  0  0  0  0  0  0  0
    7.7331   -2.7873    0.0000 C   0  0  0  0  0  0  0  0  0  0  0  0
    6.0010   -2.7873    0.0000 C   0  0  0  0  0  0  0  0  0  0  0  0
    7.7331   -1.7873    0.0000 C   0  0  0  0  0  0  0  0  0  0  0  0
    6.0010   -1.7873    0.0000 C   0  0  0  0  0  0  0  0  0  0  0  0
    9.1727    5.0831    0.0000 H   0  0  0  0  0  0  0  0  0  0  0  0
    8.6408    6.3952    0.0000 H   0  0  0  0  0  0  0  0  0  0  0  0
    8.3024    3.9665    0.0000 H   0  0  0  0  0  0  0  0  0  0  0  0
    7.2386    6.5906    0.0000 H   0  0  0  0  0  0  0  0  0  0  0  0
    6.3683    5.4740    0.0000 H   0  0  0  0  0  0  0  0  0  0  0  0
    4.2690   -6.4073    0.0000 H   0  0  0  0  0  0  0  0  0  0  0  0
    4.5981   -6.5973    0.0000 H   0  0  0  0  0  0  0  0  0  0  0  0
    4.2690   -4.1673    0.0000 H   0  0  0  0  0  0  0  0  0  0  0  0
    6.0010   -6.4073    0.0000 H   0  0  0  0  0  0  0  0  0  0  0  0
    6.0010   -4.1673    0.0000 H   0  0  0  0  0  0  0  0  0  0  0  0
    5.4322    6.3952    0.0000 H   0  0  0  0  0  0  0  0  0  0  0  0
    5.8280    5.7034    0.0000 H   0  0  0  0  0  0  0  0  0  0  0  0
   10.0368    4.5798    0.0000 H   0  0  0  0  0  0  0  0  0  0  0  0
    9.5088    6.8919    0.0000 H   0  0  0  0  0  0  0  0  0  0  0  0
    3.8015   -3.8123    0.0000 H   0  0  0  0  0  0  0  0  0  0  0  0
    3.0044   -3.8123    0.0000 H   0  0  0  0  0  0  0  0  0  0  0  0
    8.3163    7.5865    0.0000 H   0  0  0  0  0  0  0  0  0  0  0  0
    9.1588    1.4632    0.0000 H   0  0  0  0  0  0  0  0  0  0  0  0
    3.4030   -6.9073    0.0000 H   0  0  0  0  0  0  0  0  0  0  0  0
    5.6720   -7.5973    0.0000 H   0  0  0  0  0  0  0  0  0  0  0  0
    7.4040   -5.9773    0.0000 H   0  0  0  0  0  0  0  0  0  0  0  0
    5.5104    7.5973    0.0000 H   0  0  0  0  0  0  0  0  0  0  0  0
    5.4926    2.9773    0.0000 H   0  0  0  0  0  0  0  0  0  0  0  0
    2.0000   -4.4773    0.0000 H   0  0  0  0  0  0  0  0  0  0  0  0
   10.0306    2.9598    0.0000 H   0  0  0  0  0  0  0  0  0  0  0  0
    5.4277   -0.0688    0.0000 H   0  0  0  0  0  0  0  0  0  0  0  0
    8.2700   -3.0973    0.0000 H   0  0  0  0  0  0  0  0  0  0  0  0
    5.4641   -3.0973    0.0000 H   0  0  0  0  0  0  0  0  0  0  0  0
    8.2700   -1.4773    0.0000 H   0  0  0  0  0  0  0  0  0  0  0  0
    5.4641   -1.4773    0.0000 H   0  0  0  0  0  0  0  0  0  0  0  0
  1 18  1  0  0  0  0
  1 20  1  0  0  0  0
  2 24  1  0  0  0  0
  2 27  1  0  0  0  0
  3 16  1  0  0  0  0
  3 55  1  0  0  0  0
  4 17  1  0  0  0  0
  4 56  1  0  0  0  0
  5 19  1  0  0  0  0
  5 59  1  0  0  0  0
  6 27  1  0  0  0  0
  6 34  1  0  0  0  0
  7 21  1  0  0  0  0
  7 61  1  0  0  0  0
  8 22  1  0  0  0  0
  8 62  1  0  0  0  0
  9 25  1  0  0  0  0
  9 63  1  0  0  0  0
 10 26  1  0  0  0  0
 10 64  1  0  0  0  0
 11 28  1  0  0  0  0
 11 65  1  0  0  0  0
 12 29  1  0  0  0  0
 12 66  1  0  0  0  0
 13 30  1  0  0  0  0
 13 67  1  0  0  0  0
 14 33  1  0  0  0  0
 14 36  1  0  0  0  0
 15 35  2  0  0  0  0
 16 17  1  0  0  0  0
 16 18  1  0  0  0  0
 16 43  1  0  0  0  0
 17 19  1  0  0  0  0
 17 44  1  0  0  0  0
 18 23  1  0  0  0  0
 18 45  1  0  0  0  0
 19 20  1  0  0  0  0
 19 46  1  0  0  0  0
 20 26  1  0  0  0  0
 20 47  1  0  0  0  0
 21 22  1  0  0  0  0
 21 24  1  0  0  0  0
 21 48  1  0  0  0  0
 22 25  1  0  0  0  0
 22 49  1  0  0  0  0
 23 28  2  0  0  0  0
 23 30  1  0  0  0  0
 24 29  1  0  0  0  0
 24 50  1  0  0  0  0
 25 27  1  0  0  0  0
 25 51  1  0  0  0  0
 26 53  1  0  0  0  0
 26 54  1  0  0  0  0
 27 52  1  0  0  0  0
 28 31  1  0  0  0  0
 29 57  1  0  0  0  0
 29 58  1  0  0  0  0
 30 32  2  0  0  0  0
 31 33  2  0  0  0  0
 31 35  1  0  0  0  0
 32 33  1  0  0  0  0
 32 60  1  0  0  0  0
 34 39  2  0  0  0  0
 34 40  1  0  0  0  0
 35 37  1  0  0  0  0
 36 37  2  0  0  0  0
 36 38  1  0  0  0  0
 37 68  1  0  0  0  0
 38 41  2  0  0  0  0
 38 42  1  0  0  0  0
 39 41  1  0  0  0  0
 39 69  1  0  0  0  0
 40 42  2  0  0  0  0
 40 70  1  0  0  0  0
 41 71  1  0  0  0  0
 42 72  1  0  0  0  0
M  END
> <PUBCHEM_COMPOUND_CID>
73981632

> <PUBCHEM_COMPOUND_CANONICALIZED>
1

> <PUBCHEM_CACTVS_COMPLEXITY>
971

> <PUBCHEM_CACTVS_HBOND_ACCEPTOR>
15

> <PUBCHEM_CACTVS_HBOND_DONOR>
10

> <PUBCHEM_CACTVS_ROTATABLE_BOND>
6

> <PUBCHEM_CACTVS_SUBSKEYS>
AAADceB4PAAAAAAAAAAAAAAAAAAAAAAAAAA0aIECAAAAAACBQAAAGgAACAAADBSwmAMwDoAABgCIAqBSAAACCAAkIAAIiAEGCMgdNzaGNRqieWCl4BUPuQfI7PzOIAACCAAIAABAAAQQABAAAAAAAAAAAA==

> <PUBCHEM_IUPAC_OPENEYE_NAME>
5,7-dihydroxy-6-[3,4,5-trihydroxy-6-(hydroxymethyl)tetrahydropyran-2-yl]-2-[4-[3,4,5-trihydroxy-6-(hydroxymethyl)tetrahydropyran-2-yl]oxyphenyl]chromen-4-one

> <PUBCHEM_IUPAC_CAS_NAME>
5,7-dihydroxy-6-[3,4,5-trihydroxy-6-(hydroxymethyl)-2-oxanyl]-2-[4-[[3,4,5-trihydroxy-6-(hydroxymethyl)-2-oxanyl]oxy]phenyl]-1-benzopyran-4-one

> <PUBCHEM_IUPAC_NAME_MARKUP>
5,7-dihydroxy-6-[3,4,5-trihydroxy-6-(hydroxymethyl)oxan-2-yl]-2-[4-[3,4,5-trihydroxy-6-(hydroxymethyl)oxan-2-yl]oxyphenyl]chromen-4-one

> <PUBCHEM_IUPAC_NAME>
5,7-dihydroxy-6-[3,4,5-trihydroxy-6-(hydroxymethyl)oxan-2-yl]-2-[4-[3,4,5-trihydroxy-6-(hydroxymethyl)oxan-2-yl]oxyphenyl]chromen-4-one

> <PUBCHEM_IUPAC_SYSTEMATIC_NAME>
6-[6-(hydroxymethyl)-3,4,5-tris(oxidanyl)oxan-2-yl]-2-[4-[6-(hydroxymethyl)-3,4,5-tris(oxidanyl)oxan-2-yl]oxyphenyl]-5,7-bis(oxidanyl)chromen-4-one

> <PUBCHEM_IUPAC_TRADITIONAL_NAME>
5,7-dihydroxy-6-(3,4,5-trihydroxy-6-methylol-tetrahydropyran-2-yl)-2-[4-(3,4,5-trihydroxy-6-methylol-tetrahydropyran-2-yl)oxyphenyl]chromone

> <PUBCHEM_IUPAC_INCHI>
InChI=1S/C27H30O15/c28-7-15-19(32)22(35)24(37)26(41-15)18-12(31)6-14-17(21(18)34)11(30)5-13(40-14)9-1-3-10(4-2-9)39-27-25(38)23(36)20(33)16(8-29)42-27/h1-6,15-16,19-20,22-29,31-38H,7-8H2

> <PUBCHEM_IUPAC_INCHIKEY>
SFNFQCXADNWOCI-UHFFFAOYSA-N

> <PUBCHEM_XLOGP3_AA>
-1.6

> <PUBCHEM_EXACT_MASS>
594.15847

> <PUBCHEM_MOLECULAR_FORMULA>
C27H30O15

> <PUBCHEM_MOLECULAR_WEIGHT>
594.5

> <PUBCHEM_OPENEYE_CAN_SMILES>
C1=CC(=CC=C1C2=CC(=O)C3=C(O2)C=C(C(=C3O)C4C(C(C(C(O4)CO)O)O)O)O)OC5C(C(C(C(O5)CO)O)O)O

> <PUBCHEM_OPENEYE_ISO_SMILES>
C1=CC(=CC=C1C2=CC(=O)C3=C(O2)C=C(C(=C3O)C4C(C(C(C(O4)CO)O)O)O)O)OC5C(C(C(C(O5)CO)O)O)O

> <PUBCHEM_CACTVS_TPSA>
256

> <PUBCHEM_MONOISOTOPIC_WEIGHT>
594.15847

> <PUBCHEM_TOTAL_CHARGE>
0

> <PUBCHEM_HEAVY_ATOM_COUNT>
42

> <PUBCHEM_ATOM_DEF_STEREO_COUNT>
0

> <PUBCHEM_ATOM_UDEF_STEREO_COUNT>
10

> <PUBCHEM_BOND_DEF_STEREO_COUNT>
0

> <PUBCHEM_BOND_UDEF_STEREO_COUNT>
0

> <PUBCHEM_ISOTOPIC_ATOM_COUNT>
0

> <PUBCHEM_COMPONENT_COUNT>
1

> <PUBCHEM_CACTVS_TAUTO_COUNT>
-1

> <PUBCHEM_COORDINATE_TYPE>
1
5
255

> <PUBCHEM_BONDANNOTATIONS>
14  33  8
14  36  8
18  23  3
20  26  3
23  28  8
23  30  8
24  29  3
28  31  8
16  3  3
30  32  8
31  33  8
31  35  8
32  33  8
34  39  8
34  40  8
35  37  8
36  37  8
38  41  8
38  42  8
39  41  8
17  4  3
40  42  8
19  5  3
27  6  3
21  7  3
22  8  3
25  9  3

$$$$
71750877
  -OEChem-04052116542D

 87 89  0     1  0  0  0  0  0999 V2000
    5.4641    0.5179    0.0000 O   0  0  0  0  0  0  0  0  0  0  0  0
    7.1962    0.5179    0.0000 O   0  0  0  0  0  0  0  0  0  0  0  0
    5.4641   -2.4820    0.0000 O   0  0  0  0  0  0  0  0  0  0  0  0
    3.7320   -1.4820    0.0000 O   0  0  0  0  0  0  0  0  0  0  0  0
    7.1962   -1.4820    0.0000 O   0  0  0  0  0  0  0  0  0  0  0  0
    3.7320    1.5180    0.0000 O   0  0  0  0  0  0  0  0  0  0  0  0
    6.1213    3.4479    0.0000 O   0  0  0  0  0  0  0  0  0  0  0  0
   10.1962    2.2500    0.0000 O   0  0  0  0  0  0  0  0  0  0  0  0
    3.7320   -2.4820    0.0000 O   0  0  0  0  0  0  0  0  0  0  0  0
    2.8660    0.0179    0.0000 O   0  0  0  0  0  0  0  0  0  0  0  0
    6.3301   -2.9820    0.0000 O   0  0  0  0  0  0  0  0  0  0  0  0
    5.4800    1.7914    0.0000 O   0  0  0  0  0  0  0  0  0  0  0  0
    2.0000    1.5180    0.0000 O   0  0  0  0  0  0  0  0  0  0  0  0
   13.6962   -2.0801    0.0000 O   0  0  0  0  0  0  0  0  0  0  0  0
   13.6962   -0.3481    0.0000 O   0  0  0  0  0  0  0  0  0  0  0  0
    5.4641   -1.4820    0.0000 C   0  0  1  0  0  0  0  0  0  0  0  0
    4.5981   -0.9821    0.0000 C   0  0  1  0  0  0  0  0  0  0  0  0
    6.3301   -0.9821    0.0000 C   0  0  2  0  0  0  0  0  0  0  0  0
    4.5981    0.0179    0.0000 C   0  0  1  0  0  0  0  0  0  0  0  0
    6.3301    0.0179    0.0000 C   0  0  1  0  0  0  0  0  0  0  0  0
    3.7320    0.5179    0.0000 C   0  0  0  0  0  0  0  0  0  0  0  0
    7.6962    1.3840    0.0000 C   0  0  0  0  0  0  0  0  0  0  0  0
    7.1962    2.2500    0.0000 C   0  0  0  0  0  0  0  0  0  0  0  0
    8.6962    1.3840    0.0000 C   0  0  0  0  0  0  0  0  0  0  0  0
    7.6962    3.1160    0.0000 C   0  0  0  0  0  0  0  0  0  0  0  0
    4.5981   -2.9820    0.0000 C   0  0  0  0  0  0  0  0  0  0  0  0
    2.8660   -0.9821    0.0000 C   0  0  0  0  0  0  0  0  0  0  0  0
    8.6962    3.1160    0.0000 C   0  0  0  0  0  0  0  0  0  0  0  0
    9.1962    2.2500    0.0000 C   0  0  0  0  0  0  0  0  0  0  0  0
    7.1962   -2.4820    0.0000 C   0  0  0  0  0  0  0  0  0  0  0  0
    9.1962    0.5179    0.0000 C   0  0  0  0  0  0  0  0  0  0  0  0
    7.0291    3.8530    0.0000 C   0  0  0  0  0  0  0  0  0  0  0  0
    6.2243    2.4592    0.0000 C   0  0  0  0  0  0  0  0  0  0  0  0
    9.1962    3.9820    0.0000 C   0  0  0  0  0  0  0  0  0  0  0  0
    4.5981   -3.9820    0.0000 C   0  0  0  0  0  0  0  0  0  0  0  0
    2.0000   -1.4820    0.0000 C   0  0  0  0  0  0  0  0  0  0  0  0
    2.8660    2.0180    0.0000 C   0  0  0  0  0  0  0  0  0  0  0  0
    8.0622   -2.9820    0.0000 C   0  0  0  0  0  0  0  0  0  0  0  0
   10.1962    0.5179    0.0000 C   0  0  0  0  0  0  0  0  0  0  0  0
   10.6962   -0.3481    0.0000 C   0  0  0  0  0  0  0  0  0  0  0  0
    2.8660    3.0180    0.0000 C   0  0  0  0  0  0  0  0  0  0  0  0
   11.6962   -0.3481    0.0000 C   0  0  0  0  0  0  0  0  0  0  0  0
   10.6962    3.1160    0.0000 C   0  0  0  0  0  0  0  0  0  0  0  0
   10.1962   -1.2141    0.0000 C   0  0  0  0  0  0  0  0  0  0  0  0
   12.1962   -1.2141    0.0000 C   0  0  0  0  0  0  0  0  0  0  0  0
   13.1962   -1.2141    0.0000 C   0  0  0  0  0  0  0  0  0  0  0  0
   14.6962   -2.0801    0.0000 C   0  0  0  0  0  0  0  0  0  0  0  0
    4.9272   -1.7920    0.0000 H   0  0  0  0  0  0  0  0  0  0  0  0
    4.5981   -1.6020    0.0000 H   0  0  0  0  0  0  0  0  0  0  0  0
    6.3301   -1.6020    0.0000 H   0  0  0  0  0  0  0  0  0  0  0  0
    4.5981    0.6379    0.0000 H   0  0  0  0  0  0  0  0  0  0  0  0
    6.3301    0.6379    0.0000 H   0  0  0  0  0  0  0  0  0  0  0  0
    3.1215    0.6256    0.0000 H   0  0  0  0  0  0  0  0  0  0  0  0
    3.5200   -0.0647    0.0000 H   0  0  0  0  0  0  0  0  0  0  0  0
    8.6135    0.3059    0.0000 H   0  0  0  0  0  0  0  0  0  0  0  0
    9.3038   -0.0926    0.0000 H   0  0  0  0  0  0  0  0  0  0  0  0
    7.5299    4.2185    0.0000 H   0  0  0  0  0  0  0  0  0  0  0  0
    6.7183    4.3895    0.0000 H   0  0  0  0  0  0  0  0  0  0  0  0
    9.7331    3.6720    0.0000 H   0  0  0  0  0  0  0  0  0  0  0  0
    9.5062    4.5190    0.0000 H   0  0  0  0  0  0  0  0  0  0  0  0
    8.6592    4.2920    0.0000 H   0  0  0  0  0  0  0  0  0  0  0  0
    3.9781   -3.9820    0.0000 H   0  0  0  0  0  0  0  0  0  0  0  0
    4.5981   -4.6020    0.0000 H   0  0  0  0  0  0  0  0  0  0  0  0
    5.2181   -3.9820    0.0000 H   0  0  0  0  0  0  0  0  0  0  0  0
    1.6900   -0.9451    0.0000 H   0  0  0  0  0  0  0  0  0  0  0  0
    1.4631   -1.7920    0.0000 H   0  0  0  0  0  0  0  0  0  0  0  0
    2.3100   -2.0190    0.0000 H   0  0  0  0  0  0  0  0  0  0  0  0
    7.7522   -3.5190    0.0000 H   0  0  0  0  0  0  0  0  0  0  0  0
    8.5991   -3.2920    0.0000 H   0  0  0  0  0  0  0  0  0  0  0  0
    8.3722   -2.4451    0.0000 H   0  0  0  0  0  0  0  0  0  0  0  0
   10.5062    1.0549    0.0000 H   0  0  0  0  0  0  0  0  0  0  0  0
    3.4860    3.0180    0.0000 H   0  0  0  0  0  0  0  0  0  0  0  0
    2.8660    3.6380    0.0000 H   0  0  0  0  0  0  0  0  0  0  0  0
    2.2460    3.0180    0.0000 H   0  0  0  0  0  0  0  0  0  0  0  0
   12.2788   -0.1360    0.0000 H   0  0  0  0  0  0  0  0  0  0  0  0
   11.5885    0.2625    0.0000 H   0  0  0  0  0  0  0  0  0  0  0  0
   11.2331    2.8060    0.0000 H   0  0  0  0  0  0  0  0  0  0  0  0
   11.0062    3.6530    0.0000 H   0  0  0  0  0  0  0  0  0  0  0  0
   10.1592    3.4260    0.0000 H   0  0  0  0  0  0  0  0  0  0  0  0
    9.6592   -0.9041    0.0000 H   0  0  0  0  0  0  0  0  0  0  0  0
    9.8862   -1.7510    0.0000 H   0  0  0  0  0  0  0  0  0  0  0  0
   10.7331   -1.5241    0.0000 H   0  0  0  0  0  0  0  0  0  0  0  0
   11.6135   -1.4262    0.0000 H   0  0  0  0  0  0  0  0  0  0  0  0
   12.3038   -1.8247    0.0000 H   0  0  0  0  0  0  0  0  0  0  0  0
   14.6962   -2.7001    0.0000 H   0  0  0  0  0  0  0  0  0  0  0  0
   15.3162   -2.0801    0.0000 H   0  0  0  0  0  0  0  0  0  0  0  0
   14.6962   -1.4601    0.0000 H   0  0  0  0  0  0  0  0  0  0  0  0
  1 19  1  0  0  0  0
  1 20  1  0  0  0  0
 20  2  1  1  0  0  0
  2 22  1  0  0  0  0
 16  3  1  1  0  0  0
  3 26  1  0  0  0  0
 17  4  1  6  0  0  0
  4 27  1  0  0  0  0
 18  5  1  6  0  0  0
  5 30  1  0  0  0  0
  6 21  1  0  0  0  0
  6 37  1  0  0  0  0
  7 32  1  0  0  0  0
  7 33  1  0  0  0  0
  8 29  1  0  0  0  0
  8 43  1  0  0  0  0
  9 26  2  0  0  0  0
 10 27  2  0  0  0  0
 11 30  2  0  0  0  0
 12 33  2  0  0  0  0
 13 37  2  0  0  0  0
 14 46  1  0  0  0  0
 14 47  1  0  0  0  0
 15 46  2  0  0  0  0
 16 17  1  0  0  0  0
 16 18  1  0  0  0  0
 16 48  1  0  0  0  0
 17 19  1  0  0  0  0
 17 49  1  0  0  0  0
 18 20  1  0  0  0  0
 18 50  1  0  0  0  0
 19 21  1  1  0  0  0
 19 51  1  0  0  0  0
 20 52  1  0  0  0  0
 21 53  1  0  0  0  0
 21 54  1  0  0  0  0
 22 23  2  0  0  0  0
 22 24  1  0  0  0  0
 23 25  1  0  0  0  0
 23 33  1  0  0  0  0
 24 29  2  0  0  0  0
 24 31  1  0  0  0  0
 25 28  2  0  0  0  0
 25 32  1  0  0  0  0
 26 35  1  0  0  0  0
 27 36  1  0  0  0  0
 28 29  1  0  0  0  0
 28 34  1  0  0  0  0
 30 38  1  0  0  0  0
 31 39  1  0  0  0  0
 31 55  1  0  0  0  0
 31 56  1  0  0  0  0
 32 57  1  0  0  0  0
 32 58  1  0  0  0  0
 34 59  1  0  0  0  0
 34 60  1  0  0  0  0
 34 61  1  0  0  0  0
 35 62  1  0  0  0  0
 35 63  1  0  0  0  0
 35 64  1  0  0  0  0
 36 65  1  0  0  0  0
 36 66  1  0  0  0  0
 36 67  1  0  0  0  0
 37 41  1  0  0  0  0
 38 68  1  0  0  0  0
 38 69  1  0  0  0  0
 38 70  1  0  0  0  0
 39 40  2  0  0  0  0
 39 71  1  0  0  0  0
 40 42  1  0  0  0  0
 40 44  1  0  0  0  0
 41 72  1  0  0  0  0
 41 73  1  0  0  0  0
 41 74  1  0  0  0  0
 42 45  1  0  0  0  0
 42 75  1  0  0  0  0
 42 76  1  0  0  0  0
 43 77  1  0  0  0  0
 43 78  1  0  0  0  0
 43 79  1  0  0  0  0
 44 80  1  0  0  0  0
 44 81  1  0  0  0  0
 44 82  1  0  0  0  0
 45 46  1  0  0  0  0
 45 83  1  0  0  0  0
 45 84  1  0  0  0  0
 47 85  1  0  0  0  0
 47 86  1  0  0  0  0
 47 87  1  0  0  0  0
M  END
> <PUBCHEM_COMPOUND_CID>
71750877

> <PUBCHEM_COMPOUND_CANONICALIZED>
1

> <PUBCHEM_CACTVS_COMPLEXITY>
1200

> <PUBCHEM_CACTVS_HBOND_ACCEPTOR>
15

> <PUBCHEM_CACTVS_HBOND_DONOR>
0

> <PUBCHEM_CACTVS_ROTATABLE_BOND>
18

> <PUBCHEM_CACTVS_SUBSKEYS>
AAADcfB8PAAAAAAAAAAAAAAAAAAAASAAAAA0QAAAAAAAAEgBAAAAGgAAAAAADBSwmAMCDoAABACIAiDSCAACCAAkIAAAiAEECMgdJzaENRqiOWCl4BUOqQfK7PzO4AADCAAYAADAAAYQADAAAAAAAAAAAA==

> <PUBCHEM_IUPAC_OPENEYE_NAME>
methyl (E)-6-[6-methoxy-7-methyl-3-oxo-4-[(2S,3R,4S,5R,6R)-3,4,5-triacetoxy-6-(acetoxymethyl)tetrahydropyran-2-yl]oxy-1H-isobenzofuran-5-yl]-4-methyl-hex-4-enoate

> <PUBCHEM_IUPAC_CAS_NAME>
(E)-6-[6-methoxy-7-methyl-3-oxo-4-[[(2S,3R,4S,5R,6R)-3,4,5-triacetyloxy-6-(acetyloxymethyl)-2-oxanyl]oxy]-1H-isobenzofuran-5-yl]-4-methyl-4-hexenoic acid methyl ester

> <PUBCHEM_IUPAC_NAME_MARKUP>
methyl (<I>E</I>)-6-[6-methoxy-7-methyl-3-oxo-4-[(2<I>S</I>,3<I>R</I>,4<I>S</I>,5<I>R</I>,6<I>R</I>)-3,4,5-triacetyloxy-6-(acetyloxymethyl)oxan-2-yl]oxy-1<I>H</I>-2-benzofuran-5-yl]-4-methylhex-4-enoate

> <PUBCHEM_IUPAC_NAME>
methyl (E)-6-[6-methoxy-7-methyl-3-oxo-4-[(2S,3R,4S,5R,6R)-3,4,5-triacetyloxy-6-(acetyloxymethyl)oxan-2-yl]oxy-1H-2-benzofuran-5-yl]-4-methylhex-4-enoate

> <PUBCHEM_IUPAC_SYSTEMATIC_NAME>
methyl (E)-6-[6-methoxy-7-methyl-3-oxidanylidene-4-[(2S,3R,4S,5R,6R)-3,4,5-triacetyloxy-6-(acetyloxymethyl)oxan-2-yl]oxy-1H-2-benzofuran-5-yl]-4-methyl-hex-4-enoate

> <PUBCHEM_IUPAC_TRADITIONAL_NAME>
(E)-6-[3-keto-6-methoxy-7-methyl-4-[(2S,3R,4S,5R,6R)-3,4,5-triacetoxy-6-(acetoxymethyl)tetrahydropyran-2-yl]oxy-phthalan-5-yl]-4-methyl-hex-4-enoic acid methyl ester

> <PUBCHEM_IUPAC_INCHI>
InChI=1S/C32H40O15/c1-15(10-12-24(37)39-7)9-11-21-26(40-8)16(2)22-13-42-31(38)25(22)27(21)47-32-30(45-20(6)36)29(44-19(5)35)28(43-18(4)34)23(46-32)14-41-17(3)33/h9,23,28-30,32H,10-14H2,1-8H3/b15-9+/t23-,28-,29+,30-,32+/m1/s1

> <PUBCHEM_IUPAC_INCHIKEY>
QSPXJODRMPWBBL-YKNZQUTJSA-N

> <PUBCHEM_XLOGP3_AA>
2.9

> <PUBCHEM_EXACT_MASS>
664.236721

> <PUBCHEM_MOLECULAR_FORMULA>
C32H40O15

> <PUBCHEM_MOLECULAR_WEIGHT>
664.6

> <PUBCHEM_OPENEYE_CAN_SMILES>
CC1=C2COC(=O)C2=C(C(=C1OC)CC=C(C)CCC(=O)OC)OC3C(C(C(C(O3)COC(=O)C)OC(=O)C)OC(=O)C)OC(=O)C

> <PUBCHEM_OPENEYE_ISO_SMILES>
CC1=C2COC(=O)C2=C(C(=C1OC)C/C=C(\C)/CCC(=O)OC)O[C@H]3[C@@H]([C@H]([C@@H]([C@H](O3)COC(=O)C)OC(=O)C)OC(=O)C)OC(=O)C

> <PUBCHEM_CACTVS_TPSA>
186

> <PUBCHEM_MONOISOTOPIC_WEIGHT>
664.236721

> <PUBCHEM_TOTAL_CHARGE>
0

> <PUBCHEM_HEAVY_ATOM_COUNT>
47

> <PUBCHEM_ATOM_DEF_STEREO_COUNT>
5

> <PUBCHEM_ATOM_UDEF_STEREO_COUNT>
0

> <PUBCHEM_BOND_DEF_STEREO_COUNT>
1

> <PUBCHEM_BOND_UDEF_STEREO_COUNT>
0

> <PUBCHEM_ISOTOPIC_ATOM_COUNT>
0

> <PUBCHEM_COMPONENT_COUNT>
1

> <PUBCHEM_CACTVS_TAUTO_COUNT>
-1

> <PUBCHEM_COORDINATE_TYPE>
1
5
255

> <PUBCHEM_BONDANNOTATIONS>
19  21  5
20  2  5
22  23  8
22  24  8
23  25  8
24  29  8
25  28  8
28  29  8
16  3  5
17  4  6
18  5  6

$$$$
57369755
  -OEChem-04052116542D

 64 66  0     1  0  0  0  0  0999 V2000
    7.0738   -0.4479    0.0000 O   0  0  0  0  0  0  0  0  0  0  0  0
    8.8059   -0.4479    0.0000 O   0  0  0  0  0  0  0  0  0  0  0  0
    7.0738   -3.4479    0.0000 O   0  0  0  0  0  0  0  0  0  0  0  0
    5.3418   -2.4479    0.0000 O   0  0  0  0  0  0  0  0  0  0  0  0
    8.8059   -2.4479    0.0000 O   0  0  0  0  0  0  0  0  0  0  0  0
    4.4757   -0.9479    0.0000 O   0  0  0  0  0  0  0  0  0  0  0  0
   11.2017    1.5521    0.0000 O   0  0  0  0  0  0  0  0  0  0  0  0
    7.2970    2.8182    0.0000 O   0  0  0  0  0  0  0  0  0  0  0  0
   10.9288   -0.2031    0.0000 O   0  0  0  0  0  0  0  0  0  0  0  0
    2.6106    0.8070    0.0000 O   0  0  0  0  0  0  0  0  0  0  0  0
    2.9114    2.5128    0.0000 O   0  0  0  0  0  0  0  0  0  0  0  0
    7.0738   -2.4479    0.0000 C   0  0  1  0  0  0  0  0  0  0  0  0
    6.2078   -1.9479    0.0000 C   0  0  1  0  0  0  0  0  0  0  0  0
    7.9398   -1.9479    0.0000 C   0  0  3  0  0  0  0  0  0  0  0  0
    6.2078   -0.9479    0.0000 C   0  0  3  0  0  0  0  0  0  0  0  0
    7.9398   -0.9479    0.0000 C   0  0  1  0  0  0  0  0  0  0  0  0
    5.3418   -0.4479    0.0000 C   0  0  0  0  0  0  0  0  0  0  0  0
    8.8059    0.5521    0.0000 C   0  0  0  0  0  0  0  0  0  0  0  0
    9.6719    1.0521    0.0000 C   0  0  0  0  0  0  0  0  0  0  0  0
    7.9398    1.0521    0.0000 C   0  0  0  0  0  0  0  0  0  0  0  0
    9.6719    2.0521    0.0000 C   0  0  0  0  0  0  0  0  0  0  0  0
    8.8059    2.5521    0.0000 C   0  0  0  0  0  0  0  0  0  0  0  0
    7.9398    2.0521    0.0000 C   0  0  0  0  0  0  0  0  0  0  0  0
    7.0738    0.5521    0.0000 C   0  0  0  0  0  0  0  0  0  0  0  0
   10.6181    2.3569    0.0000 C   0  0  0  0  0  0  0  0  0  0  0  0
   10.6181    0.7474    0.0000 C   0  0  0  0  0  0  0  0  0  0  0  0
    8.8059    3.5521    0.0000 C   0  0  0  0  0  0  0  0  0  0  0  0
    6.2078    1.0521    0.0000 C   0  0  0  0  0  0  0  0  0  0  0  0
    5.8658    1.9918    0.0000 C   0  0  0  0  0  0  0  0  0  0  0  0
    4.8810    2.1655    0.0000 C   0  0  0  0  0  0  0  0  0  0  0  0
    7.6391    3.7579    0.0000 C   0  0  0  0  0  0  0  0  0  0  0  0
    6.5086    2.7579    0.0000 C   0  0  0  0  0  0  0  0  0  0  0  0
    4.2382    1.3994    0.0000 C   0  0  0  0  0  0  0  0  0  0  0  0
    3.2534    1.5731    0.0000 C   0  0  0  0  0  0  0  0  0  0  0  0
    6.5369   -2.7579    0.0000 H   0  0  0  0  0  0  0  0  0  0  0  0
    6.2078   -2.5679    0.0000 H   0  0  0  0  0  0  0  0  0  0  0  0
    7.9398   -2.5679    0.0000 H   0  0  0  0  0  0  0  0  0  0  0  0
    6.2078   -0.3279    0.0000 H   0  0  0  0  0  0  0  0  0  0  0  0
    7.9398   -0.3279    0.0000 H   0  0  0  0  0  0  0  0  0  0  0  0
    5.7403    0.0271    0.0000 H   0  0  0  0  0  0  0  0  0  0  0  0
    4.9432    0.0271    0.0000 H   0  0  0  0  0  0  0  0  0  0  0  0
    6.5369   -3.7579    0.0000 H   0  0  0  0  0  0  0  0  0  0  0  0
    5.3418   -3.0679    0.0000 H   0  0  0  0  0  0  0  0  0  0  0  0
    8.8059   -3.0679    0.0000 H   0  0  0  0  0  0  0  0  0  0  0  0
    6.6753    0.0772    0.0000 H   0  0  0  0  0  0  0  0  0  0  0  0
    7.4724    0.0772    0.0000 H   0  0  0  0  0  0  0  0  0  0  0  0
   11.1555    2.6661    0.0000 H   0  0  0  0  0  0  0  0  0  0  0  0
   10.3671    2.9238    0.0000 H   0  0  0  0  0  0  0  0  0  0  0  0
    3.9388   -0.6379    0.0000 H   0  0  0  0  0  0  0  0  0  0  0  0
    9.4259    3.5521    0.0000 H   0  0  0  0  0  0  0  0  0  0  0  0
    8.8059    4.1721    0.0000 H   0  0  0  0  0  0  0  0  0  0  0  0
    8.1859    3.5521    0.0000 H   0  0  0  0  0  0  0  0  0  0  0  0
    5.7328    0.6536    0.0000 H   0  0  0  0  0  0  0  0  0  0  0  0
    5.0930    2.7481    0.0000 H   0  0  0  0  0  0  0  0  0  0  0  0
    4.3440    2.4755    0.0000 H   0  0  0  0  0  0  0  0  0  0  0  0
    8.2217    3.5458    0.0000 H   0  0  0  0  0  0  0  0  0  0  0  0
    7.8511    4.3405    0.0000 H   0  0  0  0  0  0  0  0  0  0  0  0
    7.0565    3.9699    0.0000 H   0  0  0  0  0  0  0  0  0  0  0  0
    6.9835    2.3593    0.0000 H   0  0  0  0  0  0  0  0  0  0  0  0
    6.9071    3.2328    0.0000 H   0  0  0  0  0  0  0  0  0  0  0  0
    6.0336    3.1564    0.0000 H   0  0  0  0  0  0  0  0  0  0  0  0
    4.0261    0.8168    0.0000 H   0  0  0  0  0  0  0  0  0  0  0  0
    4.7751    1.0894    0.0000 H   0  0  0  0  0  0  0  0  0  0  0  0
    2.0000    0.9147    0.0000 H   0  0  0  0  0  0  0  0  0  0  0  0
  1 15  1  0  0  0  0
  1 16  1  0  0  0  0
 16  2  1  1  0  0  0
  2 18  1  0  0  0  0
 12  3  1  1  0  0  0
  3 42  1  0  0  0  0
 13  4  1  6  0  0  0
  4 43  1  0  0  0  0
  5 14  1  0  0  0  0
  5 44  1  0  0  0  0
  6 17  1  0  0  0  0
  6 49  1  0  0  0  0
  7 25  1  0  0  0  0
  7 26  1  0  0  0  0
  8 23  1  0  0  0  0
  8 31  1  0  0  0  0
  9 26  2  0  0  0  0
 10 34  1  0  0  0  0
 10 64  1  0  0  0  0
 11 34  2  0  0  0  0
 12 13  1  0  0  0  0
 12 14  1  0  0  0  0
 12 35  1  0  0  0  0
 13 15  1  0  0  0  0
 13 36  1  0  0  0  0
 14 16  1  0  0  0  0
 14 37  1  0  0  0  0
 15 17  1  0  0  0  0
 15 38  1  0  0  0  0
 16 39  1  0  0  0  0
 17 40  1  0  0  0  0
 17 41  1  0  0  0  0
 18 19  2  0  0  0  0
 18 20  1  0  0  0  0
 19 21  1  0  0  0  0
 19 26  1  0  0  0  0
 20 23  2  0  0  0  0
 20 24  1  0  0  0  0
 21 22  2  0  0  0  0
 21 25  1  0  0  0  0
 22 23  1  0  0  0  0
 22 27  1  0  0  0  0
 24 28  1  0  0  0  0
 24 45  1  0  0  0  0
 24 46  1  0  0  0  0
 25 47  1  0  0  0  0
 25 48  1  0  0  0  0
 27 50  1  0  0  0  0
 27 51  1  0  0  0  0
 27 52  1  0  0  0  0
 28 29  2  3  0  0  0
 28 53  1  0  0  0  0
 29 30  1  0  0  0  0
 29 32  1  0  0  0  0
 30 33  1  0  0  0  0
 30 54  1  0  0  0  0
 30 55  1  0  0  0  0
 31 56  1  0  0  0  0
 31 57  1  0  0  0  0
 31 58  1  0  0  0  0
 32 59  1  0  0  0  0
 32 60  1  0  0  0  0
 32 61  1  0  0  0  0
 33 34  1  0  0  0  0
 33 62  1  0  0  0  0
 33 63  1  0  0  0  0
M  END
> <PUBCHEM_COMPOUND_CID>
57369755

> <PUBCHEM_COMPOUND_CANONICALIZED>
1

> <PUBCHEM_CACTVS_COMPLEXITY>
755

> <PUBCHEM_CACTVS_HBOND_ACCEPTOR>
11

> <PUBCHEM_CACTVS_HBOND_DONOR>
5

> <PUBCHEM_CACTVS_ROTATABLE_BOND>
9

> <PUBCHEM_CACTVS_SUBSKEYS>
AAADceB4PAAAAAAAAAAAAAAAAAAAASAAAAA0QAAAAAAAAEgBAAAAGgAACAAADBSwmAMCDoAABgCIAiDSCAACCAAkIAAAiAEECMgdNzaENRqieWCl4BUPqQfK7PzO4AADCAAYAADAAAYQADAAAAAAAAAAAA==

> <PUBCHEM_IUPAC_OPENEYE_NAME>
6-[6-methoxy-7-methyl-3-oxo-4-[(2S,4S,5S)-3,4,5-trihydroxy-6-(hydroxymethyl)tetrahydropyran-2-yl]oxy-1H-isobenzofuran-5-yl]-4-methyl-hex-4-enoic acid

> <PUBCHEM_IUPAC_CAS_NAME>
6-[6-methoxy-7-methyl-3-oxo-4-[[(2S,4S,5S)-3,4,5-trihydroxy-6-(hydroxymethyl)-2-oxanyl]oxy]-1H-isobenzofuran-5-yl]-4-methyl-4-hexenoic acid

> <PUBCHEM_IUPAC_NAME_MARKUP>
6-[6-methoxy-7-methyl-3-oxo-4-[(2<I>S</I>,4<I>S</I>,5<I>S</I>)-3,4,5-trihydroxy-6-(hydroxymethyl)oxan-2-yl]oxy-1<I>H</I>-2-benzofuran-5-yl]-4-methylhex-4-enoic acid

> <PUBCHEM_IUPAC_NAME>
6-[6-methoxy-7-methyl-3-oxo-4-[(2S,4S,5S)-3,4,5-trihydroxy-6-(hydroxymethyl)oxan-2-yl]oxy-1H-2-benzofuran-5-yl]-4-methylhex-4-enoic acid

> <PUBCHEM_IUPAC_SYSTEMATIC_NAME>
6-[4-[(2S,4S,5S)-6-(hydroxymethyl)-3,4,5-tris(oxidanyl)oxan-2-yl]oxy-6-methoxy-7-methyl-3-oxidanylidene-1H-2-benzofuran-5-yl]-4-methyl-hex-4-enoic acid

> <PUBCHEM_IUPAC_TRADITIONAL_NAME>
6-[3-keto-6-methoxy-7-methyl-4-[(2S,4S,5S)-3,4,5-trihydroxy-6-methylol-tetrahydropyran-2-yl]oxy-phthalan-5-yl]-4-methyl-hex-4-enoic acid

> <PUBCHEM_IUPAC_INCHI>
InChI=1S/C23H30O11/c1-10(5-7-15(25)26)4-6-12-20(31-3)11(2)13-9-32-22(30)16(13)21(12)34-23-19(29)18(28)17(27)14(8-24)33-23/h4,14,17-19,23-24,27-29H,5-9H2,1-3H3,(H,25,26)/t14?,17-,18+,19?,23+/m1/s1

> <PUBCHEM_IUPAC_INCHIKEY>
PXWZKGRCFSHAMN-DURJAHDDSA-N

> <PUBCHEM_XLOGP3_AA>
0.8

> <PUBCHEM_EXACT_MASS>
482.178812

> <PUBCHEM_MOLECULAR_FORMULA>
C23H30O11

> <PUBCHEM_MOLECULAR_WEIGHT>
482.5

> <PUBCHEM_OPENEYE_CAN_SMILES>
CC1=C2COC(=O)C2=C(C(=C1OC)CC=C(C)CCC(=O)O)OC3C(C(C(C(O3)CO)O)O)O

> <PUBCHEM_OPENEYE_ISO_SMILES>
CC1=C2COC(=O)C2=C(C(=C1OC)CC=C(C)CCC(=O)O)O[C@H]3C([C@H]([C@@H](C(O3)CO)O)O)O

> <PUBCHEM_CACTVS_TPSA>
172

> <PUBCHEM_MONOISOTOPIC_WEIGHT>
482.178812

> <PUBCHEM_TOTAL_CHARGE>
0

> <PUBCHEM_HEAVY_ATOM_COUNT>
34

> <PUBCHEM_ATOM_DEF_STEREO_COUNT>
3

> <PUBCHEM_ATOM_UDEF_STEREO_COUNT>
2

> <PUBCHEM_BOND_DEF_STEREO_COUNT>
0

> <PUBCHEM_BOND_UDEF_STEREO_COUNT>
1

> <PUBCHEM_ISOTOPIC_ATOM_COUNT>
0

> <PUBCHEM_COMPONENT_COUNT>
1

> <PUBCHEM_CACTVS_TAUTO_COUNT>
-1

> <PUBCHEM_COORDINATE_TYPE>
1
5
255

> <PUBCHEM_BONDANNOTATIONS>
15  17  3
18  19  8
18  20  8
19  21  8
16  2  5
20  23  8
21  22  8
22  23  8
28  29  1
12  3  5
13  4  6
14  5  3

$$$$
53971756
  -OEChem-04052116542D

 36 37  0     1  0  0  0  0  0999 V2000
    5.1350    0.1550    0.0000 O   0  0  0  0  0  0  0  0  0  0  0  0
    6.8671    0.1550    0.0000 O   0  0  0  0  0  0  0  0  0  0  0  0
    5.1350   -2.8450    0.0000 O   0  0  0  0  0  0  0  0  0  0  0  0
    3.4030   -1.8450    0.0000 O   0  0  0  0  0  0  0  0  0  0  0  0
    6.8671   -1.8450    0.0000 O   0  0  0  0  0  0  0  0  0  0  0  0
    2.5369   -0.3450    0.0000 O   0  0  0  0  0  0  0  0  0  0  0  0
    3.4030    1.1550    0.0000 O   0  0  0  0  0  0  0  0  0  0  0  0
    9.4651    1.6550    0.0000 O   0  0  0  0  0  0  0  0  0  0  0  0
    8.5991    0.1550    0.0000 O   0  0  0  0  0  0  0  0  0  0  0  0
    5.1350   -1.8450    0.0000 C   0  0  1  0  0  0  0  0  0  0  0  0
    4.2690   -1.3450    0.0000 C   0  0  1  0  0  0  0  0  0  0  0  0
    6.0010   -1.3450    0.0000 C   0  0  2  0  0  0  0  0  0  0  0  0
    4.2690   -0.3450    0.0000 C   0  0  1  0  0  0  0  0  0  0  0  0
    6.0010   -0.3450    0.0000 C   0  0  3  0  0  0  0  0  0  0  0  0
    3.4030    0.1550    0.0000 C   0  0  0  0  0  0  0  0  0  0  0  0
    6.8671    1.1550    0.0000 C   0  0  0  0  0  0  0  0  0  0  0  0
    7.7331    1.6550    0.0000 C   0  0  0  0  0  0  0  0  0  0  0  0
    6.0010    1.6550    0.0000 C   0  0  0  0  0  0  0  0  0  0  0  0
    7.7331    2.6550    0.0000 C   0  0  0  0  0  0  0  0  0  0  0  0
    6.0010    2.6550    0.0000 C   0  0  0  0  0  0  0  0  0  0  0  0
    6.8671    3.1550    0.0000 C   0  0  0  0  0  0  0  0  0  0  0  0
    8.5991    1.1550    0.0000 C   0  0  0  0  0  0  0  0  0  0  0  0
    4.5981   -2.1550    0.0000 H   0  0  0  0  0  0  0  0  0  0  0  0
    3.7320   -1.0350    0.0000 H   0  0  0  0  0  0  0  0  0  0  0  0
    6.0010   -1.9650    0.0000 H   0  0  0  0  0  0  0  0  0  0  0  0
    4.2690    0.2750    0.0000 H   0  0  0  0  0  0  0  0  0  0  0  0
    6.0010    0.2750    0.0000 H   0  0  0  0  0  0  0  0  0  0  0  0
    5.6720   -3.1550    0.0000 H   0  0  0  0  0  0  0  0  0  0  0  0
    7.4040   -1.5350    0.0000 H   0  0  0  0  0  0  0  0  0  0  0  0
    3.4030   -2.4650    0.0000 H   0  0  0  0  0  0  0  0  0  0  0  0
    5.4641    1.3450    0.0000 H   0  0  0  0  0  0  0  0  0  0  0  0
    2.0000   -0.0350    0.0000 H   0  0  0  0  0  0  0  0  0  0  0  0
    8.2700    2.9650    0.0000 H   0  0  0  0  0  0  0  0  0  0  0  0
    5.4641    2.9650    0.0000 H   0  0  0  0  0  0  0  0  0  0  0  0
    6.8671    3.7750    0.0000 H   0  0  0  0  0  0  0  0  0  0  0  0
   10.0021    1.3450    0.0000 H   0  0  0  0  0  0  0  0  0  0  0  0
  1 13  1  0  0  0  0
  1 14  1  0  0  0  0
  2 14  1  0  0  0  0
  2 16  1  0  0  0  0
 10  3  1  1  0  0  0
  3 28  1  0  0  0  0
 11  4  1  6  0  0  0
  4 30  1  0  0  0  0
 12  5  1  6  0  0  0
  5 29  1  0  0  0  0
  6 15  1  0  0  0  0
  6 32  1  0  0  0  0
  7 15  2  0  0  0  0
  8 22  1  0  0  0  0
  8 36  1  0  0  0  0
  9 22  2  0  0  0  0
 10 11  1  0  0  0  0
 10 12  1  0  0  0  0
 10 23  1  0  0  0  0
 11 13  1  0  0  0  0
 11 24  1  0  0  0  0
 12 14  1  0  0  0  0
 12 25  1  0  0  0  0
 13 15  1  1  0  0  0
 13 26  1  0  0  0  0
 14 27  1  0  0  0  0
 16 17  1  0  0  0  0
 16 18  2  0  0  0  0
 17 19  2  0  0  0  0
 17 22  1  0  0  0  0
 18 20  1  0  0  0  0
 18 31  1  0  0  0  0
 19 21  1  0  0  0  0
 19 33  1  0  0  0  0
 20 21  2  0  0  0  0
 20 34  1  0  0  0  0
 21 35  1  0  0  0  0
M  END
> <PUBCHEM_COMPOUND_CID>
53971756

> <PUBCHEM_COMPOUND_CANONICALIZED>
1

> <PUBCHEM_CACTVS_COMPLEXITY>
426

> <PUBCHEM_CACTVS_HBOND_ACCEPTOR>
9

> <PUBCHEM_CACTVS_HBOND_DONOR>
5

> <PUBCHEM_CACTVS_ROTATABLE_BOND>
4

> <PUBCHEM_CACTVS_SUBSKEYS>
AAADccBwPAAAAAAAAAAAAAAAAAAAAAAAAAA0QAAAAAAAAAABAAAAGgAACAAADBSwmAMwDoAABgCIAiDSCAICCAAkIAAIiAFGCMgdNzaENR6ieWCl4BEPuYfK7CzOAAAAAAAIAAAAAAAAABAAAAAAAAAAAA==

> <PUBCHEM_IUPAC_OPENEYE_NAME>
(2S,3S,4S,5R)-6-(2-carboxyphenoxy)-3,4,5-trihydroxy-tetrahydropyran-2-carboxylic acid

> <PUBCHEM_IUPAC_CAS_NAME>
(2S,3S,4S,5R)-6-(2-carboxyphenoxy)-3,4,5-trihydroxy-2-oxanecarboxylic acid

> <PUBCHEM_IUPAC_NAME_MARKUP>
(2<I>S</I>,3<I>S</I>,4<I>S</I>,5<I>R</I>)-6-(2-carboxyphenoxy)-3,4,5-trihydroxyoxane-2-carboxylic acid

> <PUBCHEM_IUPAC_NAME>
(2S,3S,4S,5R)-6-(2-carboxyphenoxy)-3,4,5-trihydroxyoxane-2-carboxylic acid

> <PUBCHEM_IUPAC_SYSTEMATIC_NAME>
(2S,3S,4S,5R)-6-(2-carboxyphenoxy)-3,4,5-tris(oxidanyl)oxane-2-carboxylic acid

> <PUBCHEM_IUPAC_TRADITIONAL_NAME>
(2S,3S,4S,5R)-6-(2-carboxyphenoxy)-3,4,5-trihydroxy-tetrahydropyran-2-carboxylic acid

> <PUBCHEM_IUPAC_INCHI>
InChI=1S/C13H14O9/c14-7-8(15)10(12(19)20)22-13(9(7)16)21-6-4-2-1-3-5(6)11(17)18/h1-4,7-10,13-16H,(H,17,18)(H,19,20)/t7-,8-,9+,10-,13?/m0/s1

> <PUBCHEM_IUPAC_INCHIKEY>
JSCWDKKMLIQCMR-XFVPOMSTSA-N

> <PUBCHEM_XLOGP3_AA>
-0.5

> <PUBCHEM_EXACT_MASS>
314.063782

> <PUBCHEM_MOLECULAR_FORMULA>
C13H14O9

> <PUBCHEM_MOLECULAR_WEIGHT>
314.24

> <PUBCHEM_OPENEYE_CAN_SMILES>
C1=CC=C(C(=C1)C(=O)O)OC2C(C(C(C(O2)C(=O)O)O)O)O

> <PUBCHEM_OPENEYE_ISO_SMILES>
C1=CC=C(C(=C1)C(=O)O)OC2[C@@H]([C@H]([C@@H]([C@H](O2)C(=O)O)O)O)O

> <PUBCHEM_CACTVS_TPSA>
154

> <PUBCHEM_MONOISOTOPIC_WEIGHT>
314.063782

> <PUBCHEM_TOTAL_CHARGE>
0

> <PUBCHEM_HEAVY_ATOM_COUNT>
22

> <PUBCHEM_ATOM_DEF_STEREO_COUNT>
4

> <PUBCHEM_ATOM_UDEF_STEREO_COUNT>
1

> <PUBCHEM_BOND_DEF_STEREO_COUNT>
0

> <PUBCHEM_BOND_UDEF_STEREO_COUNT>
0

> <PUBCHEM_ISOTOPIC_ATOM_COUNT>
0

> <PUBCHEM_COMPONENT_COUNT>
1

> <PUBCHEM_CACTVS_TAUTO_COUNT>
-1

> <PUBCHEM_COORDINATE_TYPE>
1
5
255

> <PUBCHEM_BONDANNOTATIONS>
13  15  5
16  17  8
16  18  8
17  19  8
18  20  8
19  21  8
14  2  3
20  21  8
10  3  5
11  4  6
12  5  6

$$$$
45266796
  -OEChem-04052116542D

109109  0     1  0  0  0  0  0999 V2000
   14.9904   11.6550    0.0000 O   0  0  0  0  0  0  0  0  0  0  0  0
   10.6603    7.1550    0.0000 O   0  0  0  0  0  0  0  0  0  0  0  0
    9.7942    5.6550    0.0000 O   0  0  0  0  0  0  0  0  0  0  0  0
    2.8660  -12.3450    0.0000 O   0  0  0  0  0  0  0  0  0  0  0  0
   14.1244   10.1550    0.0000 C   0  0  2  0  0  0  0  0  0  0  0  0
   13.2583    9.6550    0.0000 C   0  0  0  0  0  0  0  0  0  0  0  0
   13.2583    8.6550    0.0000 C   0  0  0  0  0  0  0  0  0  0  0  0
   12.3923    8.1550    0.0000 C   0  0  0  0  0  0  0  0  0  0  0  0
   12.3923    7.1550    0.0000 C   0  0  0  0  0  0  0  0  0  0  0  0
   11.5263    6.6550    0.0000 C   0  0  2  0  0  0  0  0  0  0  0  0
   14.1244   11.1550    0.0000 C   0  0  2  0  0  0  0  0  0  0  0  0
   11.5263    5.6550    0.0000 C   0  0  0  0  0  0  0  0  0  0  0  0
   10.6603    5.1550    0.0000 C   0  0  2  0  0  0  0  0  0  0  0  0
   10.6603    4.1550    0.0000 C   0  0  0  0  0  0  0  0  0  0  0  0
    9.7942    3.6550    0.0000 C   0  0  0  0  0  0  0  0  0  0  0  0
    9.7942    2.6550    0.0000 C   0  0  0  0  0  0  0  0  0  0  0  0
    8.9282    2.1550    0.0000 C   0  0  0  0  0  0  0  0  0  0  0  0
   14.9904    9.6550    0.0000 C   0  0  0  0  0  0  0  0  0  0  0  0
   13.2583   11.6550    0.0000 C   0  0  0  0  0  0  0  0  0  0  0  0
    8.9282    1.1550    0.0000 C   0  0  0  0  0  0  0  0  0  0  0  0
    8.0622    0.6550    0.0000 C   0  0  0  0  0  0  0  0  0  0  0  0
    8.0622   -0.3450    0.0000 C   0  0  0  0  0  0  0  0  0  0  0  0
    7.1962   -0.8450    0.0000 C   0  0  0  0  0  0  0  0  0  0  0  0
    7.1962   -1.8450    0.0000 C   0  0  0  0  0  0  0  0  0  0  0  0
    6.3301   -2.3450    0.0000 C   0  0  0  0  0  0  0  0  0  0  0  0
    6.3301   -3.3450    0.0000 C   0  0  0  0  0  0  0  0  0  0  0  0
    5.4641   -3.8450    0.0000 C   0  0  0  0  0  0  0  0  0  0  0  0
    5.4641   -4.8450    0.0000 C   0  0  0  0  0  0  0  0  0  0  0  0
    4.5981   -5.3450    0.0000 C   0  0  0  0  0  0  0  0  0  0  0  0
   13.2583   12.6550    0.0000 C   0  0  0  0  0  0  0  0  0  0  0  0
    4.5981   -6.3450    0.0000 C   0  0  0  0  0  0  0  0  0  0  0  0
    3.7320   -6.8450    0.0000 C   0  0  0  0  0  0  0  0  0  0  0  0
   14.9904   12.6550    0.0000 C   0  0  0  0  0  0  0  0  0  0  0  0
    3.7320   -7.8450    0.0000 C   0  0  0  0  0  0  0  0  0  0  0  0
    2.8660   -8.3450    0.0000 C   0  0  0  0  0  0  0  0  0  0  0  0
    2.8660   -9.3450    0.0000 C   0  0  0  0  0  0  0  0  0  0  0  0
    3.7320   -9.8450    0.0000 C   0  0  0  0  0  0  0  0  0  0  0  0
    2.0000   -9.8450    0.0000 C   0  0  0  0  0  0  0  0  0  0  0  0
    3.7320  -10.8450    0.0000 C   0  0  0  0  0  0  0  0  0  0  0  0
    2.0000  -10.8450    0.0000 C   0  0  0  0  0  0  0  0  0  0  0  0
    2.8660  -11.3450    0.0000 C   0  0  0  0  0  0  0  0  0  0  0  0
   14.1244    9.5350    0.0000 H   0  0  0  0  0  0  0  0  0  0  0  0
   13.0463   10.2376    0.0000 H   0  0  0  0  0  0  0  0  0  0  0  0
   12.6477    9.5473    0.0000 H   0  0  0  0  0  0  0  0  0  0  0  0
   13.4704    8.0724    0.0000 H   0  0  0  0  0  0  0  0  0  0  0  0
   13.8689    8.7627    0.0000 H   0  0  0  0  0  0  0  0  0  0  0  0
   12.1803    8.7376    0.0000 H   0  0  0  0  0  0  0  0  0  0  0  0
   11.7817    8.0473    0.0000 H   0  0  0  0  0  0  0  0  0  0  0  0
   12.6044    6.5724    0.0000 H   0  0  0  0  0  0  0  0  0  0  0  0
   13.0029    7.2627    0.0000 H   0  0  0  0  0  0  0  0  0  0  0  0
   10.9893    6.3450    0.0000 H   0  0  0  0  0  0  0  0  0  0  0  0
   14.1244   11.7750    0.0000 H   0  0  0  0  0  0  0  0  0  0  0  0
   11.7383    5.0724    0.0000 H   0  0  0  0  0  0  0  0  0  0  0  0
   12.1369    5.7627    0.0000 H   0  0  0  0  0  0  0  0  0  0  0  0
   10.6603    5.7750    0.0000 H   0  0  0  0  0  0  0  0  0  0  0  0
   10.8723    3.5724    0.0000 H   0  0  0  0  0  0  0  0  0  0  0  0
   11.2708    4.2627    0.0000 H   0  0  0  0  0  0  0  0  0  0  0  0
    9.5822    4.2376    0.0000 H   0  0  0  0  0  0  0  0  0  0  0  0
    9.1836    3.5473    0.0000 H   0  0  0  0  0  0  0  0  0  0  0  0
   10.0063    2.0724    0.0000 H   0  0  0  0  0  0  0  0  0  0  0  0
   10.4048    2.7627    0.0000 H   0  0  0  0  0  0  0  0  0  0  0  0
    8.7162    2.7376    0.0000 H   0  0  0  0  0  0  0  0  0  0  0  0
    8.3176    2.0473    0.0000 H   0  0  0  0  0  0  0  0  0  0  0  0
   14.6804    9.1181    0.0000 H   0  0  0  0  0  0  0  0  0  0  0  0
   15.5273    9.3450    0.0000 H   0  0  0  0  0  0  0  0  0  0  0  0
   15.3004   10.1919    0.0000 H   0  0  0  0  0  0  0  0  0  0  0  0
    9.1403    0.5724    0.0000 H   0  0  0  0  0  0  0  0  0  0  0  0
    9.5388    1.2627    0.0000 H   0  0  0  0  0  0  0  0  0  0  0  0
   12.6477   11.7627    0.0000 H   0  0  0  0  0  0  0  0  0  0  0  0
   13.0463   11.0724    0.0000 H   0  0  0  0  0  0  0  0  0  0  0  0
    7.8501    1.2376    0.0000 H   0  0  0  0  0  0  0  0  0  0  0  0
    7.4516    0.5473    0.0000 H   0  0  0  0  0  0  0  0  0  0  0  0
    8.2742   -0.9276    0.0000 H   0  0  0  0  0  0  0  0  0  0  0  0
    8.6728   -0.2373    0.0000 H   0  0  0  0  0  0  0  0  0  0  0  0
    6.9841   -0.2624    0.0000 H   0  0  0  0  0  0  0  0  0  0  0  0
    6.5856   -0.9527    0.0000 H   0  0  0  0  0  0  0  0  0  0  0  0
    7.4082   -2.4276    0.0000 H   0  0  0  0  0  0  0  0  0  0  0  0
    7.8067   -1.7373    0.0000 H   0  0  0  0  0  0  0  0  0  0  0  0
    6.1181   -1.7624    0.0000 H   0  0  0  0  0  0  0  0  0  0  0  0
    5.7196   -2.4527    0.0000 H   0  0  0  0  0  0  0  0  0  0  0  0
    6.5422   -3.9276    0.0000 H   0  0  0  0  0  0  0  0  0  0  0  0
    6.9407   -3.2373    0.0000 H   0  0  0  0  0  0  0  0  0  0  0  0
    5.2520   -3.2624    0.0000 H   0  0  0  0  0  0  0  0  0  0  0  0
    4.8535   -3.9527    0.0000 H   0  0  0  0  0  0  0  0  0  0  0  0
    5.6762   -5.4276    0.0000 H   0  0  0  0  0  0  0  0  0  0  0  0
    6.0747   -4.7373    0.0000 H   0  0  0  0  0  0  0  0  0  0  0  0
    4.3860   -4.7624    0.0000 H   0  0  0  0  0  0  0  0  0  0  0  0
    3.9875   -5.4527    0.0000 H   0  0  0  0  0  0  0  0  0  0  0  0
   10.6603    7.7750    0.0000 H   0  0  0  0  0  0  0  0  0  0  0  0
   13.8783   12.6550    0.0000 H   0  0  0  0  0  0  0  0  0  0  0  0
   13.2583   13.2750    0.0000 H   0  0  0  0  0  0  0  0  0  0  0  0
   12.6383   12.6550    0.0000 H   0  0  0  0  0  0  0  0  0  0  0  0
    9.7942    6.2750    0.0000 H   0  0  0  0  0  0  0  0  0  0  0  0
    4.8101   -6.9276    0.0000 H   0  0  0  0  0  0  0  0  0  0  0  0
    5.2087   -6.2373    0.0000 H   0  0  0  0  0  0  0  0  0  0  0  0
    3.5200   -6.2624    0.0000 H   0  0  0  0  0  0  0  0  0  0  0  0
    3.1215   -6.9527    0.0000 H   0  0  0  0  0  0  0  0  0  0  0  0
   15.6104   12.6550    0.0000 H   0  0  0  0  0  0  0  0  0  0  0  0
   14.9904   13.2750    0.0000 H   0  0  0  0  0  0  0  0  0  0  0  0
   14.3704   12.6550    0.0000 H   0  0  0  0  0  0  0  0  0  0  0  0
    3.9441   -8.4276    0.0000 H   0  0  0  0  0  0  0  0  0  0  0  0
    4.3426   -7.7373    0.0000 H   0  0  0  0  0  0  0  0  0  0  0  0
    2.6540   -7.7624    0.0000 H   0  0  0  0  0  0  0  0  0  0  0  0
    2.2554   -8.4527    0.0000 H   0  0  0  0  0  0  0  0  0  0  0  0
    4.2690   -9.5350    0.0000 H   0  0  0  0  0  0  0  0  0  0  0  0
    1.4631   -9.5350    0.0000 H   0  0  0  0  0  0  0  0  0  0  0  0
    4.2690  -11.1550    0.0000 H   0  0  0  0  0  0  0  0  0  0  0  0
    1.4631  -11.1550    0.0000 H   0  0  0  0  0  0  0  0  0  0  0  0
    2.3291  -12.6550    0.0000 H   0  0  0  0  0  0  0  0  0  0  0  0
 11  1  1  6  0  0  0
  1 33  1  0  0  0  0
 10  2  1  6  0  0  0
  2 89  1  0  0  0  0
 13  3  1  6  0  0  0
  3 93  1  0  0  0  0
  4 41  1  0  0  0  0
  4109  1  0  0  0  0
  5  6  1  0  0  0  0
  5 11  1  0  0  0  0
  5 18  1  6  0  0  0
  5 42  1  0  0  0  0
  6  7  1  0  0  0  0
  6 43  1  0  0  0  0
  6 44  1  0  0  0  0
  7  8  1  0  0  0  0
  7 45  1  0  0  0  0
  7 46  1  0  0  0  0
  8  9  1  0  0  0  0
  8 47  1  0  0  0  0
  8 48  1  0  0  0  0
  9 10  1  0  0  0  0
  9 49  1  0  0  0  0
  9 50  1  0  0  0  0
 10 12  1  0  0  0  0
 10 51  1  0  0  0  0
 11 19  1  0  0  0  0
 11 52  1  0  0  0  0
 12 13  1  0  0  0  0
 12 53  1  0  0  0  0
 12 54  1  0  0  0  0
 13 14  1  0  0  0  0
 13 55  1  0  0  0  0
 14 15  1  0  0  0  0
 14 56  1  0  0  0  0
 14 57  1  0  0  0  0
 15 16  1  0  0  0  0
 15 58  1  0  0  0  0
 15 59  1  0  0  0  0
 16 17  1  0  0  0  0
 16 60  1  0  0  0  0
 16 61  1  0  0  0  0
 17 20  1  0  0  0  0
 17 62  1  0  0  0  0
 17 63  1  0  0  0  0
 18 64  1  0  0  0  0
 18 65  1  0  0  0  0
 18 66  1  0  0  0  0
 19 30  1  0  0  0  0
 19 69  1  0  0  0  0
 19 70  1  0  0  0  0
 20 21  1  0  0  0  0
 20 67  1  0  0  0  0
 20 68  1  0  0  0  0
 21 22  1  0  0  0  0
 21 71  1  0  0  0  0
 21 72  1  0  0  0  0
 22 23  1  0  0  0  0
 22 73  1  0  0  0  0
 22 74  1  0  0  0  0
 23 24  1  0  0  0  0
 23 75  1  0  0  0  0
 23 76  1  0  0  0  0
 24 25  1  0  0  0  0
 24 77  1  0  0  0  0
 24 78  1  0  0  0  0
 25 26  1  0  0  0  0
 25 79  1  0  0  0  0
 25 80  1  0  0  0  0
 26 27  1  0  0  0  0
 26 81  1  0  0  0  0
 26 82  1  0  0  0  0
 27 28  1  0  0  0  0
 27 83  1  0  0  0  0
 27 84  1  0  0  0  0
 28 29  1  0  0  0  0
 28 85  1  0  0  0  0
 28 86  1  0  0  0  0
 29 31  1  0  0  0  0
 29 87  1  0  0  0  0
 29 88  1  0  0  0  0
 30 90  1  0  0  0  0
 30 91  1  0  0  0  0
 30 92  1  0  0  0  0
 31 32  1  0  0  0  0
 31 94  1  0  0  0  0
 31 95  1  0  0  0  0
 32 34  1  0  0  0  0
 32 96  1  0  0  0  0
 32 97  1  0  0  0  0
 33 98  1  0  0  0  0
 33 99  1  0  0  0  0
 33100  1  0  0  0  0
 34 35  1  0  0  0  0
 34101  1  0  0  0  0
 34102  1  0  0  0  0
 35 36  1  0  0  0  0
 35103  1  0  0  0  0
 35104  1  0  0  0  0
 36 37  2  0  0  0  0
 36 38  1  0  0  0  0
 37 39  1  0  0  0  0
 37105  1  0  0  0  0
 38 40  2  0  0  0  0
 38106  1  0  0  0  0
 39 41  2  0  0  0  0
 39107  1  0  0  0  0
 40 41  1  0  0  0  0
 40108  1  0  0  0  0
M  END
> <PUBCHEM_COMPOUND_CID>
45266796

> <PUBCHEM_COMPOUND_CANONICALIZED>
1

> <PUBCHEM_CACTVS_COMPLEXITY>
533

> <PUBCHEM_CACTVS_HBOND_ACCEPTOR>
4

> <PUBCHEM_CACTVS_HBOND_DONOR>
3

> <PUBCHEM_CACTVS_ROTATABLE_BOND>
29

> <PUBCHEM_CACTVS_SUBSKEYS>
AAADcfB8OAAAAAAAAAAAAAAAAAAAAAAAAAAwAAAAAAAAAAABAAAAGgAACAAADRSgmAIyBoAABgCAAiBCAAACAAAgIAAIiAAGCIgINiKCERKAcAAlwBEImAeAwOAOIAAAAAAAAABAAAAAAAAAAAAAAAAAAA==

> <PUBCHEM_IUPAC_OPENEYE_NAME>
(3S,4R,9R,11S)-29-(4-hydroxyphenyl)-3-methoxy-4-methyl-nonacosane-9,11-diol

> <PUBCHEM_IUPAC_CAS_NAME>
(3S,4R,9R,11S)-29-(4-hydroxyphenyl)-3-methoxy-4-methylnonacosane-9,11-diol

> <PUBCHEM_IUPAC_NAME_MARKUP>
(3<I>S</I>,4<I>R</I>,9<I>R</I>,11<I>S</I>)-29-(4-hydroxyphenyl)-3-methoxy-4-methylnonacosane-9,11-diol

> <PUBCHEM_IUPAC_NAME>
(3S,4R,9R,11S)-29-(4-hydroxyphenyl)-3-methoxy-4-methylnonacosane-9,11-diol

> <PUBCHEM_IUPAC_SYSTEMATIC_NAME>
(3S,4R,9R,11S)-29-(4-hydroxyphenyl)-3-methoxy-4-methyl-nonacosane-9,11-diol

> <PUBCHEM_IUPAC_TRADITIONAL_NAME>
(3S,4R,9R,11S)-29-(4-hydroxyphenyl)-3-methoxy-4-methyl-nonacosane-9,11-diol

> <PUBCHEM_IUPAC_INCHI>
InChI=1S/C37H68O4/c1-4-37(41-3)32(2)23-21-22-26-36(40)31-35(39)25-20-18-16-14-12-10-8-6-5-7-9-11-13-15-17-19-24-33-27-29-34(38)30-28-33/h27-30,32,35-40H,4-26,31H2,1-3H3/t32-,35+,36-,37+/m1/s1

> <PUBCHEM_IUPAC_INCHIKEY>
GDIGGEUWHKJEEK-IIVMXCGDSA-N

> <PUBCHEM_XLOGP3_AA>
13

> <PUBCHEM_EXACT_MASS>
576.511761

> <PUBCHEM_MOLECULAR_FORMULA>
C37H68O4

> <PUBCHEM_MOLECULAR_WEIGHT>
576.9

> <PUBCHEM_OPENEYE_CAN_SMILES>
CCC(C(C)CCCCC(CC(CCCCCCCCCCCCCCCCCCC1=CC=C(C=C1)O)O)O)OC

> <PUBCHEM_OPENEYE_ISO_SMILES>
CC[C@@H]([C@H](C)CCCC[C@H](C[C@H](CCCCCCCCCCCCCCCCCCC1=CC=C(C=C1)O)O)O)OC

> <PUBCHEM_CACTVS_TPSA>
69.9

> <PUBCHEM_MONOISOTOPIC_WEIGHT>
576.511761

> <PUBCHEM_TOTAL_CHARGE>
0

> <PUBCHEM_HEAVY_ATOM_COUNT>
41

> <PUBCHEM_ATOM_DEF_STEREO_COUNT>
4

> <PUBCHEM_ATOM_UDEF_STEREO_COUNT>
0

> <PUBCHEM_BOND_DEF_STEREO_COUNT>
0

> <PUBCHEM_BOND_UDEF_STEREO_COUNT>
0

> <PUBCHEM_ISOTOPIC_ATOM_COUNT>
0

> <PUBCHEM_COMPONENT_COUNT>
1

> <PUBCHEM_CACTVS_TAUTO_COUNT>
-1

> <PUBCHEM_COORDINATE_TYPE>
1
5
255

> <PUBCHEM_BONDANNOTATIONS>
11  1  6
10  2  6
13  3  6
36  37  8
36  38  8
37  39  8
38  40  8
39  41  8
40  41  8
5  18  6

$$$$
45266795
  -OEChem-04052116542D

185188  0     1  0  0  0  0  0999 V2000
   18.4545   -8.7500    0.0000 O   0  0  0  0  0  0  0  0  0  0  0  0
   16.7224  -10.7500    0.0000 O   0  0  0  0  0  0  0  0  0  0  0  0
   20.1865   -8.7500    0.0000 O   0  0  0  0  0  0  0  0  0  0  0  0
   17.5885  -12.2500    0.0000 O   0  0  0  0  0  0  0  0  0  0  0  0
   18.4545  -11.7500    0.0000 O   0  0  0  0  0  0  0  0  0  0  0  0
   20.1865  -10.7500    0.0000 O   0  0  0  0  0  0  0  0  0  0  0  0
   19.3205   -6.2500    0.0000 O   0  0  0  0  0  0  0  0  0  0  0  0
   21.9186   -7.7500    0.0000 O   0  0  0  0  0  0  0  0  0  0  0  0
   14.9904  -13.7500    0.0000 O   0  0  0  0  0  0  0  0  0  0  0  0
   14.9904  -11.7500    0.0000 O   0  0  0  0  0  0  0  0  0  0  0  0
   18.4545   -7.7500    0.0000 O   0  0  0  0  0  0  0  0  0  0  0  0
   21.9186   -5.7500    0.0000 O   0  0  0  0  0  0  0  0  0  0  0  0
   16.7224  -14.7500    0.0000 O   0  0  0  0  0  0  0  0  0  0  0  0
   18.4545  -14.7500    0.0000 O   0  0  0  0  0  0  0  0  0  0  0  0
    3.7320   14.7500    0.0000 O   0  0  0  0  0  0  0  0  0  0  0  0
    5.4641    8.7500    0.0000 O   0  0  0  0  0  0  0  0  0  0  0  0
    6.3301    7.2500    0.0000 O   0  0  0  0  0  0  0  0  0  0  0  0
   17.5885  -10.2500    0.0000 C   0  0  2  0  0  0  0  0  0  0  0  0
   18.4545  -10.7500    0.0000 C   0  0  2  0  0  0  0  0  0  0  0  0
   19.3205  -10.2500    0.0000 C   0  0  2  0  0  0  0  0  0  0  0  0
   17.5885   -9.2500    0.0000 C   0  0  2  0  0  0  0  0  0  0  0  0
   19.3205   -9.2500    0.0000 C   0  0  1  0  0  0  0  0  0  0  0  0
   20.1865   -7.7500    0.0000 C   0  0  2  0  0  0  0  0  0  0  0  0
   16.7224  -11.7500    0.0000 C   0  0  1  0  0  0  0  0  0  0  0  0
   21.0526   -7.2500    0.0000 C   0  0  1  0  0  0  0  0  0  0  0  0
   15.8564  -12.2500    0.0000 C   0  0  1  0  0  0  0  0  0  0  0  0
   15.8564  -13.2500    0.0000 C   0  0  2  0  0  0  0  0  0  0  0  0
   21.0526   -6.2500    0.0000 C   0  0  2  0  0  0  0  0  0  0  0  0
   16.7224  -13.7500    0.0000 C   0  0  1  0  0  0  0  0  0  0  0  0
   19.3205   -7.2500    0.0000 C   0  0  1  0  0  0  0  0  0  0  0  0
   17.5885  -13.2500    0.0000 C   0  0  1  0  0  0  0  0  0  0  0  0
   20.1865   -5.7500    0.0000 C   0  0  2  0  0  0  0  0  0  0  0  0
   16.7224   -8.7500    0.0000 C   0  0  0  0  0  0  0  0  0  0  0  0
   18.4545  -13.7500    0.0000 C   0  0  0  0  0  0  0  0  0  0  0  0
   20.1865   -4.7500    0.0000 C   0  0  0  0  0  0  0  0  0  0  0  0
   19.3205  -12.2500    0.0000 C   0  0  0  0  0  0  0  0  0  0  0  0
   21.0526  -10.2500    0.0000 C   0  0  0  0  0  0  0  0  0  0  0  0
   22.7846   -7.2500    0.0000 C   0  0  0  0  0  0  0  0  0  0  0  0
   14.9904  -14.7500    0.0000 C   0  0  0  0  0  0  0  0  0  0  0  0
   17.5885   -7.2500    0.0000 C   0  0  0  0  0  0  0  0  0  0  0  0
   17.5885   -6.2500    0.0000 C   0  0  0  0  0  0  0  0  0  0  0  0
   16.7224   -7.7500    0.0000 C   0  0  0  0  0  0  0  0  0  0  0  0
   19.3205  -15.2500    0.0000 C   0  0  0  0  0  0  0  0  0  0  0  0
   16.7224   -5.7500    0.0000 C   0  0  0  0  0  0  0  0  0  0  0  0
   15.8564   -7.2500    0.0000 C   0  0  0  0  0  0  0  0  0  0  0  0
   15.8564   -6.2500    0.0000 C   0  0  0  0  0  0  0  0  0  0  0  0
    4.5981   13.2500    0.0000 C   0  0  2  0  0  0  0  0  0  0  0  0
   14.9904   -5.7500    0.0000 C   0  0  0  0  0  0  0  0  0  0  0  0
    4.5981   12.2500    0.0000 C   0  0  0  0  0  0  0  0  0  0  0  0
    5.4641   11.7500    0.0000 C   0  0  0  0  0  0  0  0  0  0  0  0
    5.4641   10.7500    0.0000 C   0  0  0  0  0  0  0  0  0  0  0  0
    6.3301   10.2500    0.0000 C   0  0  0  0  0  0  0  0  0  0  0  0
    6.3301    9.2500    0.0000 C   0  0  2  0  0  0  0  0  0  0  0  0
    3.7320   13.7500    0.0000 C   0  0  2  0  0  0  0  0  0  0  0  0
    7.1962    8.7500    0.0000 C   0  0  0  0  0  0  0  0  0  0  0  0
   14.9904   -4.7500    0.0000 C   0  0  0  0  0  0  0  0  0  0  0  0
    7.1962    7.7500    0.0000 C   0  0  2  0  0  0  0  0  0  0  0  0
    8.0622    7.2500    0.0000 C   0  0  0  0  0  0  0  0  0  0  0  0
   14.1244   -4.2500    0.0000 C   0  0  0  0  0  0  0  0  0  0  0  0
    8.0622    6.2500    0.0000 C   0  0  0  0  0  0  0  0  0  0  0  0
    5.4641   13.7500    0.0000 C   0  0  0  0  0  0  0  0  0  0  0  0
    8.9282    5.7500    0.0000 C   0  0  0  0  0  0  0  0  0  0  0  0
    2.8660   13.2500    0.0000 C   0  0  0  0  0  0  0  0  0  0  0  0
   14.1244   -3.2500    0.0000 C   0  0  0  0  0  0  0  0  0  0  0  0
    8.9282    4.7500    0.0000 C   0  0  0  0  0  0  0  0  0  0  0  0
    9.7942    4.2500    0.0000 C   0  0  0  0  0  0  0  0  0  0  0  0
   13.2583   -2.7500    0.0000 C   0  0  0  0  0  0  0  0  0  0  0  0
    9.7942    3.2500    0.0000 C   0  0  0  0  0  0  0  0  0  0  0  0
   10.6603    2.7500    0.0000 C   0  0  0  0  0  0  0  0  0  0  0  0
   13.2583   -1.7500    0.0000 C   0  0  0  0  0  0  0  0  0  0  0  0
   10.6603    1.7500    0.0000 C   0  0  0  0  0  0  0  0  0  0  0  0
   12.3923   -1.2500    0.0000 C   0  0  0  0  0  0  0  0  0  0  0  0
   11.5263    1.2500    0.0000 C   0  0  0  0  0  0  0  0  0  0  0  0
   12.3923   -0.2500    0.0000 C   0  0  0  0  0  0  0  0  0  0  0  0
   11.5263    0.2500    0.0000 C   0  0  0  0  0  0  0  0  0  0  0  0
    2.0000   13.7500    0.0000 C   0  0  0  0  0  0  0  0  0  0  0  0
    2.8660   15.2500    0.0000 C   0  0  0  0  0  0  0  0  0  0  0  0
   17.5885  -10.8700    0.0000 H   0  0  0  0  0  0  0  0  0  0  0  0
   17.9175  -11.0600    0.0000 H   0  0  0  0  0  0  0  0  0  0  0  0
   19.3205  -10.8700    0.0000 H   0  0  0  0  0  0  0  0  0  0  0  0
   17.5885   -8.6300    0.0000 H   0  0  0  0  0  0  0  0  0  0  0  0
   19.8574   -9.5600    0.0000 H   0  0  0  0  0  0  0  0  0  0  0  0
   19.6496   -8.0600    0.0000 H   0  0  0  0  0  0  0  0  0  0  0  0
   16.1855  -11.4400    0.0000 H   0  0  0  0  0  0  0  0  0  0  0  0
   21.0526   -7.8700    0.0000 H   0  0  0  0  0  0  0  0  0  0  0  0
   15.3195  -12.5600    0.0000 H   0  0  0  0  0  0  0  0  0  0  0  0
   16.3933  -13.5600    0.0000 H   0  0  0  0  0  0  0  0  0  0  0  0
   21.0526   -5.6300    0.0000 H   0  0  0  0  0  0  0  0  0  0  0  0
   16.1855  -14.0600    0.0000 H   0  0  0  0  0  0  0  0  0  0  0  0
   18.7836   -6.9400    0.0000 H   0  0  0  0  0  0  0  0  0  0  0  0
   18.1254  -12.9400    0.0000 H   0  0  0  0  0  0  0  0  0  0  0  0
   19.6496   -5.4400    0.0000 H   0  0  0  0  0  0  0  0  0  0  0  0
   17.0324   -8.2131    0.0000 H   0  0  0  0  0  0  0  0  0  0  0  0
   16.1855   -8.4400    0.0000 H   0  0  0  0  0  0  0  0  0  0  0  0
   16.4124   -9.2869    0.0000 H   0  0  0  0  0  0  0  0  0  0  0  0
   19.0651  -13.8577    0.0000 H   0  0  0  0  0  0  0  0  0  0  0  0
   18.6665  -13.1674    0.0000 H   0  0  0  0  0  0  0  0  0  0  0  0
   20.8065   -4.7500    0.0000 H   0  0  0  0  0  0  0  0  0  0  0  0
   20.1865   -4.1300    0.0000 H   0  0  0  0  0  0  0  0  0  0  0  0
   19.5665   -4.7500    0.0000 H   0  0  0  0  0  0  0  0  0  0  0  0
   14.4534  -12.0600    0.0000 H   0  0  0  0  0  0  0  0  0  0  0  0
   19.0105  -12.7869    0.0000 H   0  0  0  0  0  0  0  0  0  0  0  0
   19.8574  -12.5600    0.0000 H   0  0  0  0  0  0  0  0  0  0  0  0
   19.6305  -11.7131    0.0000 H   0  0  0  0  0  0  0  0  0  0  0  0
   21.9186   -5.1300    0.0000 H   0  0  0  0  0  0  0  0  0  0  0  0
   21.3626  -10.7869    0.0000 H   0  0  0  0  0  0  0  0  0  0  0  0
   21.5895   -9.9400    0.0000 H   0  0  0  0  0  0  0  0  0  0  0  0
   20.7426   -9.7131    0.0000 H   0  0  0  0  0  0  0  0  0  0  0  0
   16.1855  -15.0600    0.0000 H   0  0  0  0  0  0  0  0  0  0  0  0
   23.0946   -7.7869    0.0000 H   0  0  0  0  0  0  0  0  0  0  0  0
   23.3215   -6.9400    0.0000 H   0  0  0  0  0  0  0  0  0  0  0  0
   22.4746   -6.7131    0.0000 H   0  0  0  0  0  0  0  0  0  0  0  0
   14.3704  -14.7500    0.0000 H   0  0  0  0  0  0  0  0  0  0  0  0
   14.9904  -15.3700    0.0000 H   0  0  0  0  0  0  0  0  0  0  0  0
   15.6104  -14.7500    0.0000 H   0  0  0  0  0  0  0  0  0  0  0  0
   18.1254   -5.9400    0.0000 H   0  0  0  0  0  0  0  0  0  0  0  0
   16.7224   -8.3700    0.0000 H   0  0  0  0  0  0  0  0  0  0  0  0
   19.0105  -15.7869    0.0000 H   0  0  0  0  0  0  0  0  0  0  0  0
   19.8574  -15.5600    0.0000 H   0  0  0  0  0  0  0  0  0  0  0  0
   19.6305  -14.7131    0.0000 H   0  0  0  0  0  0  0  0  0  0  0  0
   16.7224   -5.1300    0.0000 H   0  0  0  0  0  0  0  0  0  0  0  0
   15.3195   -7.5600    0.0000 H   0  0  0  0  0  0  0  0  0  0  0  0
    5.1350   12.9400    0.0000 H   0  0  0  0  0  0  0  0  0  0  0  0
   14.3798   -5.6423    0.0000 H   0  0  0  0  0  0  0  0  0  0  0  0
   14.7783   -6.3326    0.0000 H   0  0  0  0  0  0  0  0  0  0  0  0
    3.9875   12.3577    0.0000 H   0  0  0  0  0  0  0  0  0  0  0  0
    4.3860   11.6674    0.0000 H   0  0  0  0  0  0  0  0  0  0  0  0
    6.0747   11.6423    0.0000 H   0  0  0  0  0  0  0  0  0  0  0  0
    5.6762   12.3326    0.0000 H   0  0  0  0  0  0  0  0  0  0  0  0
    4.8535   10.8577    0.0000 H   0  0  0  0  0  0  0  0  0  0  0  0
    5.2520   10.1674    0.0000 H   0  0  0  0  0  0  0  0  0  0  0  0
    6.9407   10.1423    0.0000 H   0  0  0  0  0  0  0  0  0  0  0  0
    6.5422   10.8326    0.0000 H   0  0  0  0  0  0  0  0  0  0  0  0
    6.3301    8.6300    0.0000 H   0  0  0  0  0  0  0  0  0  0  0  0
    4.2690   14.0600    0.0000 H   0  0  0  0  0  0  0  0  0  0  0  0
    7.8067    8.6423    0.0000 H   0  0  0  0  0  0  0  0  0  0  0  0
    7.4082    9.3326    0.0000 H   0  0  0  0  0  0  0  0  0  0  0  0
   15.6010   -4.8577    0.0000 H   0  0  0  0  0  0  0  0  0  0  0  0
   15.2024   -4.1674    0.0000 H   0  0  0  0  0  0  0  0  0  0  0  0
    6.6592    8.0600    0.0000 H   0  0  0  0  0  0  0  0  0  0  0  0
    8.6728    7.1423    0.0000 H   0  0  0  0  0  0  0  0  0  0  0  0
    8.2742    7.8326    0.0000 H   0  0  0  0  0  0  0  0  0  0  0  0
   13.5138   -4.1423    0.0000 H   0  0  0  0  0  0  0  0  0  0  0  0
   13.9123   -4.8326    0.0000 H   0  0  0  0  0  0  0  0  0  0  0  0
    7.4516    6.3577    0.0000 H   0  0  0  0  0  0  0  0  0  0  0  0
    7.8501    5.6674    0.0000 H   0  0  0  0  0  0  0  0  0  0  0  0
    5.7741   13.2131    0.0000 H   0  0  0  0  0  0  0  0  0  0  0  0
    6.0010   14.0600    0.0000 H   0  0  0  0  0  0  0  0  0  0  0  0
    5.1541   14.2869    0.0000 H   0  0  0  0  0  0  0  0  0  0  0  0
    9.5388    5.6423    0.0000 H   0  0  0  0  0  0  0  0  0  0  0  0
    9.1403    6.3326    0.0000 H   0  0  0  0  0  0  0  0  0  0  0  0
    2.4675   12.7751    0.0000 H   0  0  0  0  0  0  0  0  0  0  0  0
    3.2646   12.7751    0.0000 H   0  0  0  0  0  0  0  0  0  0  0  0
   14.7349   -3.3577    0.0000 H   0  0  0  0  0  0  0  0  0  0  0  0
   14.3364   -2.6674    0.0000 H   0  0  0  0  0  0  0  0  0  0  0  0
    8.3176    4.8577    0.0000 H   0  0  0  0  0  0  0  0  0  0  0  0
    8.7162    4.1674    0.0000 H   0  0  0  0  0  0  0  0  0  0  0  0
   10.4048    4.1423    0.0000 H   0  0  0  0  0  0  0  0  0  0  0  0
   10.0063    4.8326    0.0000 H   0  0  0  0  0  0  0  0  0  0  0  0
   12.6477   -2.6423    0.0000 H   0  0  0  0  0  0  0  0  0  0  0  0
   13.0463   -3.3326    0.0000 H   0  0  0  0  0  0  0  0  0  0  0  0
    9.1836    3.3577    0.0000 H   0  0  0  0  0  0  0  0  0  0  0  0
    9.5822    2.6674    0.0000 H   0  0  0  0  0  0  0  0  0  0  0  0
   11.2708    2.6423    0.0000 H   0  0  0  0  0  0  0  0  0  0  0  0
   10.8723    3.3326    0.0000 H   0  0  0  0  0  0  0  0  0  0  0  0
   13.8689   -1.8577    0.0000 H   0  0  0  0  0  0  0  0  0  0  0  0
   13.4704   -1.1674    0.0000 H   0  0  0  0  0  0  0  0  0  0  0  0
   10.0497    1.8577    0.0000 H   0  0  0  0  0  0  0  0  0  0  0  0
   10.4482    1.1674    0.0000 H   0  0  0  0  0  0  0  0  0  0  0  0
   11.7817   -1.1423    0.0000 H   0  0  0  0  0  0  0  0  0  0  0  0
   12.1803   -1.8326    0.0000 H   0  0  0  0  0  0  0  0  0  0  0  0
   12.1369    1.1423    0.0000 H   0  0  0  0  0  0  0  0  0  0  0  0
   11.7383    1.8326    0.0000 H   0  0  0  0  0  0  0  0  0  0  0  0
   13.0029   -0.3577    0.0000 H   0  0  0  0  0  0  0  0  0  0  0  0
   12.6044    0.3326    0.0000 H   0  0  0  0  0  0  0  0  0  0  0  0
   10.9157    0.3577    0.0000 H   0  0  0  0  0  0  0  0  0  0  0  0
   11.3142   -0.3326    0.0000 H   0  0  0  0  0  0  0  0  0  0  0  0
    2.3100   14.2869    0.0000 H   0  0  0  0  0  0  0  0  0  0  0  0
    1.4631   14.0600    0.0000 H   0  0  0  0  0  0  0  0  0  0  0  0
    1.6900   13.2131    0.0000 H   0  0  0  0  0  0  0  0  0  0  0  0
    4.9272    9.0600    0.0000 H   0  0  0  0  0  0  0  0  0  0  0  0
    5.7932    7.5600    0.0000 H   0  0  0  0  0  0  0  0  0  0  0  0
    3.1760   15.7869    0.0000 H   0  0  0  0  0  0  0  0  0  0  0  0
    2.3291   15.5600    0.0000 H   0  0  0  0  0  0  0  0  0  0  0  0
    2.5560   14.7131    0.0000 H   0  0  0  0  0  0  0  0  0  0  0  0
  1 21  1  0  0  0  0
  1 22  1  0  0  0  0
 18  2  1  1  0  0  0
 24  2  1  1  0  0  0
 22  3  1  1  0  0  0
 23  3  1  1  0  0  0
  4 24  1  0  0  0  0
  4 31  1  0  0  0  0
 19  5  1  6  0  0  0
  5 36  1  0  0  0  0
 20  6  1  6  0  0  0
  6 37  1  0  0  0  0
  7 30  1  0  0  0  0
  7 32  1  0  0  0  0
 25  8  1  1  0  0  0
  8 38  1  0  0  0  0
 27  9  1  6  0  0  0
  9 39  1  0  0  0  0
 26 10  1  1  0  0  0
 10101  1  0  0  0  0
 30 11  1  6  0  0  0
 11 40  1  0  0  0  0
 28 12  1  6  0  0  0
 12105  1  0  0  0  0
 29 13  1  1  0  0  0
 13109  1  0  0  0  0
 14 34  1  0  0  0  0
 14 43  1  0  0  0  0
 54 15  1  6  0  0  0
 15 77  1  0  0  0  0
 53 16  1  6  0  0  0
 16181  1  0  0  0  0
 57 17  1  6  0  0  0
 17182  1  0  0  0  0
 18 19  1  0  0  0  0
 18 21  1  0  0  0  0
 18 78  1  0  0  0  0
 19 20  1  0  0  0  0
 19 79  1  0  0  0  0
 20 22  1  0  0  0  0
 20 80  1  0  0  0  0
 21 33  1  6  0  0  0
 21 81  1  0  0  0  0
 22 82  1  0  0  0  0
 23 25  1  0  0  0  0
 23 30  1  0  0  0  0
 23 83  1  0  0  0  0
 24 26  1  0  0  0  0
 24 84  1  0  0  0  0
 25 28  1  0  0  0  0
 25 85  1  0  0  0  0
 26 27  1  0  0  0  0
 26 86  1  0  0  0  0
 27 29  1  0  0  0  0
 27 87  1  0  0  0  0
 28 32  1  0  0  0  0
 28 88  1  0  0  0  0
 29 31  1  0  0  0  0
 29 89  1  0  0  0  0
 30 90  1  0  0  0  0
 31 34  1  6  0  0  0
 31 91  1  0  0  0  0
 32 35  1  1  0  0  0
 32 92  1  0  0  0  0
 33 93  1  0  0  0  0
 33 94  1  0  0  0  0
 33 95  1  0  0  0  0
 34 96  1  0  0  0  0
 34 97  1  0  0  0  0
 35 98  1  0  0  0  0
 35 99  1  0  0  0  0
 35100  1  0  0  0  0
 36102  1  0  0  0  0
 36103  1  0  0  0  0
 36104  1  0  0  0  0
 37106  1  0  0  0  0
 37107  1  0  0  0  0
 37108  1  0  0  0  0
 38110  1  0  0  0  0
 38111  1  0  0  0  0
 38112  1  0  0  0  0
 39113  1  0  0  0  0
 39114  1  0  0  0  0
 39115  1  0  0  0  0
 40 41  2  0  0  0  0
 40 42  1  0  0  0  0
 41 44  1  0  0  0  0
 41116  1  0  0  0  0
 42 45  2  0  0  0  0
 42117  1  0  0  0  0
 43118  1  0  0  0  0
 43119  1  0  0  0  0
 43120  1  0  0  0  0
 44 46  2  0  0  0  0
 44121  1  0  0  0  0
 45 46  1  0  0  0  0
 45122  1  0  0  0  0
 46 48  1  0  0  0  0
 47 49  1  0  0  0  0
 47 54  1  0  0  0  0
 47 61  1  6  0  0  0
 47123  1  0  0  0  0
 48 56  1  0  0  0  0
 48124  1  0  0  0  0
 48125  1  0  0  0  0
 49 50  1  0  0  0  0
 49126  1  0  0  0  0
 49127  1  0  0  0  0
 50 51  1  0  0  0  0
 50128  1  0  0  0  0
 50129  1  0  0  0  0
 51 52  1  0  0  0  0
 51130  1  0  0  0  0
 51131  1  0  0  0  0
 52 53  1  0  0  0  0
 52132  1  0  0  0  0
 52133  1  0  0  0  0
 53 55  1  0  0  0  0
 53134  1  0  0  0  0
 54 63  1  0  0  0  0
 54135  1  0  0  0  0
 55 57  1  0  0  0  0
 55136  1  0  0  0  0
 55137  1  0  0  0  0
 56 59  1  0  0  0  0
 56138  1  0  0  0  0
 56139  1  0  0  0  0
 57 58  1  0  0  0  0
 57140  1  0  0  0  0
 58 60  1  0  0  0  0
 58141  1  0  0  0  0
 58142  1  0  0  0  0
 59 64  1  0  0  0  0
 59143  1  0  0  0  0
 59144  1  0  0  0  0
 60 62  1  0  0  0  0
 60145  1  0  0  0  0
 60146  1  0  0  0  0
 61147  1  0  0  0  0
 61148  1  0  0  0  0
 61149  1  0  0  0  0
 62 65  1  0  0  0  0
 62150  1  0  0  0  0
 62151  1  0  0  0  0
 63 76  1  0  0  0  0
 63152  1  0  0  0  0
 63153  1  0  0  0  0
 64 67  1  0  0  0  0
 64154  1  0  0  0  0
 64155  1  0  0  0  0
 65 66  1  0  0  0  0
 65156  1  0  0  0  0
 65157  1  0  0  0  0
 66 68  1  0  0  0  0
 66158  1  0  0  0  0
 66159  1  0  0  0  0
 67 70  1  0  0  0  0
 67160  1  0  0  0  0
 67161  1  0  0  0  0
 68 69  1  0  0  0  0
 68162  1  0  0  0  0
 68163  1  0  0  0  0
 69 71  1  0  0  0  0
 69164  1  0  0  0  0
 69165  1  0  0  0  0
 70 72  1  0  0  0  0
 70166  1  0  0  0  0
 70167  1  0  0  0  0
 71 73  1  0  0  0  0
 71168  1  0  0  0  0
 71169  1  0  0  0  0
 72 74  1  0  0  0  0
 72170  1  0  0  0  0
 72171  1  0  0  0  0
 73 75  1  0  0  0  0
 73172  1  0  0  0  0
 73173  1  0  0  0  0
 74 75  1  0  0  0  0
 74174  1  0  0  0  0
 74175  1  0  0  0  0
 75176  1  0  0  0  0
 75177  1  0  0  0  0
 76178  1  0  0  0  0
 76179  1  0  0  0  0
 76180  1  0  0  0  0
 77183  1  0  0  0  0
 77184  1  0  0  0  0
 77185  1  0  0  0  0
M  END
> <PUBCHEM_COMPOUND_CID>
45266795

> <PUBCHEM_COMPOUND_CANONICALIZED>
1

> <PUBCHEM_CACTVS_COMPLEXITY>
1440

> <PUBCHEM_CACTVS_HBOND_ACCEPTOR>
17

> <PUBCHEM_CACTVS_HBOND_DONOR>
5

> <PUBCHEM_CACTVS_ROTATABLE_BOND>
41

> <PUBCHEM_CACTVS_SUBSKEYS>
AAADcfB8PgAAAAAAAAAAAAAAAAAAAAAAAAA0SJEAAAAAAAABAAAAGgAACAAADRSwmAMyDoAABgCAAiBCAAACCAAgIAAIiAAGCIgdNiKEMRqieCClwBEPqAfA4OwOIAAAAAAAAABAAAAAAAAAAAAAAAAAAA==

> <PUBCHEM_IUPAC_OPENEYE_NAME>
(2R,3R,4S,5R,6R)-2-[(2S,3S,4R,5R,6S)-6-[(2S,3R,4R,5S,6S)-2-[4-[(19S,21R,26R,27S)-19,21-dihydroxy-27-methoxy-26-methyl-nonacosyl]phenoxy]-5-hydroxy-4-methoxy-6-methyl-tetrahydropyran-3-yl]oxy-4,5-dimethoxy-2-methyl-tetrahydropyran-3-yl]oxy-4-methoxy-6-(methoxymethyl)tetrahydropyran-3,5-diol

> <PUBCHEM_IUPAC_CAS_NAME>
(2R,3R,4S,5R,6R)-2-[[(2S,3S,4R,5R,6S)-6-[[(2S,3R,4R,5S,6S)-2-[4-[(19S,21R,26R,27S)-19,21-dihydroxy-27-methoxy-26-methylnonacosyl]phenoxy]-5-hydroxy-4-methoxy-6-methyl-3-oxanyl]oxy]-4,5-dimethoxy-2-methyl-3-oxanyl]oxy]-4-methoxy-6-(methoxymethyl)oxane-3,5-diol

> <PUBCHEM_IUPAC_NAME_MARKUP>
(2<I>R</I>,3<I>R</I>,4<I>S</I>,5<I>R</I>,6<I>R</I>)-2-[(2<I>S</I>,3<I>S</I>,4<I>R</I>,5<I>R</I>,6<I>S</I>)-6-[(2<I>S</I>,3<I>R</I>,4<I>R</I>,5<I>S</I>,6<I>S</I>)-2-[4-[(19<I>S</I>,21<I>R</I>,26<I>R</I>,27<I>S</I>)-19,21-dihydroxy-27-methoxy-26-methylnonacosyl]phenoxy]-5-hydroxy-4-methoxy-6-methyloxan-3-yl]oxy-4,5-dimethoxy-2-methyloxan-3-yl]oxy-4-methoxy-6-(methoxymethyl)oxane-3,5-diol

> <PUBCHEM_IUPAC_NAME>
(2R,3R,4S,5R,6R)-2-[(2S,3S,4R,5R,6S)-6-[(2S,3R,4R,5S,6S)-2-[4-[(19S,21R,26R,27S)-19,21-dihydroxy-27-methoxy-26-methylnonacosyl]phenoxy]-5-hydroxy-4-methoxy-6-methyloxan-3-yl]oxy-4,5-dimethoxy-2-methyloxan-3-yl]oxy-4-methoxy-6-(methoxymethyl)oxane-3,5-diol

> <PUBCHEM_IUPAC_SYSTEMATIC_NAME>
(2R,3R,4S,5R,6R)-2-[(2S,3S,4R,5R,6S)-4,5-dimethoxy-6-[(2S,3R,4R,5S,6S)-4-methoxy-2-[4-[(19S,21R,26R,27S)-27-methoxy-26-methyl-19,21-bis(oxidanyl)nonacosyl]phenoxy]-6-methyl-5-oxidanyl-oxan-3-yl]oxy-2-methyl-oxan-3-yl]oxy-4-methoxy-6-(methoxymethyl)oxane-3,5-diol

> <PUBCHEM_IUPAC_TRADITIONAL_NAME>
(2R,3R,4S,5R,6R)-2-[(2S,3S,4R,5R,6S)-6-[(2S,3R,4R,5S,6S)-2-[4-[(19S,21R,26R,27S)-19,21-dihydroxy-27-methoxy-26-methyl-nonacosyl]phenoxy]-5-hydroxy-4-methoxy-6-methyl-tetrahydropyran-3-yl]oxy-4,5-dimethoxy-2-methyl-tetrahydropyran-3-yl]oxy-4-methoxy-6-(methoxymethyl)tetrahydropyran-3,5-diol

> <PUBCHEM_IUPAC_INCHI>
InChI=1S/C60H108O17/c1-11-47(67-6)40(2)30-28-29-33-45(62)38-44(61)32-27-25-23-21-19-17-15-13-12-14-16-18-20-22-24-26-31-43-34-36-46(37-35-43)74-60-57(54(69-8)49(63)41(3)72-60)77-59-56(71-10)55(70-9)52(42(4)73-59)76-58-51(65)53(68-7)50(64)48(75-58)39-66-5/h34-37,40-42,44-45,47-65H,11-33,38-39H2,1-10H3/t40-,41+,42+,44+,45-,47+,48-,49+,50-,51-,52+,53+,54-,55-,56-,57-,58-,59+,60+/m1/s1

> <PUBCHEM_IUPAC_INCHIKEY>
GSZNVQSLPJJQJQ-UHTCQZBBSA-N

> <PUBCHEM_XLOGP3_AA>
11.1

> <PUBCHEM_EXACT_MASS>
1100.758652

> <PUBCHEM_MOLECULAR_FORMULA>
C60H108O17

> <PUBCHEM_MOLECULAR_WEIGHT>
1101.5

> <PUBCHEM_OPENEYE_CAN_SMILES>
CCC(C(C)CCCCC(CC(CCCCCCCCCCCCCCCCCCC1=CC=C(C=C1)OC2C(C(C(C(O2)C)O)OC)OC3C(C(C(C(O3)C)OC4C(C(C(C(O4)COC)O)OC)O)OC)OC)O)O)OC

> <PUBCHEM_OPENEYE_ISO_SMILES>
CC[C@@H]([C@H](C)CCCC[C@H](C[C@H](CCCCCCCCCCCCCCCCCCC1=CC=C(C=C1)O[C@H]2[C@@H]([C@@H]([C@H]([C@@H](O2)C)O)OC)O[C@H]3[C@@H]([C@@H]([C@H]([C@@H](O3)C)O[C@@H]4[C@@H]([C@H]([C@@H]([C@H](O4)COC)O)OC)O)OC)OC)O)O)OC

> <PUBCHEM_CACTVS_TPSA>
212

> <PUBCHEM_MONOISOTOPIC_WEIGHT>
1100.758652

> <PUBCHEM_TOTAL_CHARGE>
0

> <PUBCHEM_HEAVY_ATOM_COUNT>
77

> <PUBCHEM_ATOM_DEF_STEREO_COUNT>
19

> <PUBCHEM_ATOM_UDEF_STEREO_COUNT>
0

> <PUBCHEM_BOND_DEF_STEREO_COUNT>
0

> <PUBCHEM_BOND_UDEF_STEREO_COUNT>
0

> <PUBCHEM_ISOTOPIC_ATOM_COUNT>
0

> <PUBCHEM_COMPONENT_COUNT>
1

> <PUBCHEM_CACTVS_TAUTO_COUNT>
-1

> <PUBCHEM_COORDINATE_TYPE>
1
5
255

> <PUBCHEM_BONDANNOTATIONS>
26  10  5
30  11  6
28  12  6
29  13  5
54  15  6
53  16  6
57  17  6
18  2  5
24  2  5
21  33  6
22  3  5
23  3  5
31  34  6
32  35  5
40  41  8
40  42  8
41  44  8
42  45  8
44  46  8
45  46  8
47  61  6
19  5  6
20  6  6
25  8  5
27  9  6

$$$$
44258292
  -OEChem-04052116542D

 60 62  0     0  0  0  0  0  0999 V2000
    8.1301   -1.1900    0.0000 O   0  0  0  0  0  0  0  0  0  0  0  0
    4.6000   -1.2142    0.0000 O   0  0  0  0  0  0  0  0  0  0  0  0
    6.3817    1.8446    0.0000 O   0  0  0  0  0  0  0  0  0  0  0  0
    8.1301    1.8100    0.0000 O   0  0  0  0  0  0  0  0  0  0  0  0
    8.9961   -2.6900    0.0000 O   0  0  0  0  0  0  0  0  0  0  0  0
   12.4602   -2.6900    0.0000 O   0  0  0  0  0  0  0  0  0  0  0  0
    7.2641    0.3100    0.0000 C   0  0  0  0  0  0  0  0  0  0  0  0
    8.9961    0.3100    0.0000 C   0  0  0  0  0  0  0  0  0  0  0  0
    7.2641   -0.6900    0.0000 C   0  0  0  0  0  0  0  0  0  0  0  0
    5.4641    0.3308    0.0000 C   0  0  0  0  0  0  0  0  0  0  0  0
    8.9961   -0.6900    0.0000 C   0  0  0  0  0  0  0  0  0  0  0  0
    8.1301    0.8100    0.0000 C   0  0  0  0  0  0  0  0  0  0  0  0
    6.3701    0.8447    0.0000 C   0  0  0  0  0  0  0  0  0  0  0  0
    9.8622    0.8100    0.0000 C   0  0  0  0  0  0  0  0  0  0  0  0
    5.4641   -0.7108    0.0000 C   0  0  0  0  0  0  0  0  0  0  0  0
    6.3701   -1.2247    0.0000 C   0  0  0  0  0  0  0  0  0  0  0  0
    4.6000    0.8342    0.0000 C   0  0  0  0  0  0  0  0  0  0  0  0
    9.8622   -1.1900    0.0000 C   0  0  0  0  0  0  0  0  0  0  0  0
    9.8622    1.8100    0.0000 C   0  0  0  0  0  0  0  0  0  0  0  0
    3.7320    0.3375    0.0000 C   0  0  0  0  0  0  0  0  0  0  0  0
    9.8622   -2.1900    0.0000 C   0  0  0  0  0  0  0  0  0  0  0  0
   10.7282   -0.6900    0.0000 C   0  0  0  0  0  0  0  0  0  0  0  0
   10.7282    2.3100    0.0000 C   0  0  0  0  0  0  0  0  0  0  0  0
    2.8680    0.8408    0.0000 C   0  0  0  0  0  0  0  0  0  0  0  0
   10.7282   -2.6900    0.0000 C   0  0  0  0  0  0  0  0  0  0  0  0
   11.5942   -1.1900    0.0000 C   0  0  0  0  0  0  0  0  0  0  0  0
   11.5942   -2.1900    0.0000 C   0  0  0  0  0  0  0  0  0  0  0  0
   10.7282    3.3100    0.0000 C   0  0  0  0  0  0  0  0  0  0  0  0
   11.5942    1.8100    0.0000 C   0  0  0  0  0  0  0  0  0  0  0  0
    4.6038   -2.2141    0.0000 C   0  0  0  0  0  0  0  0  0  0  0  0
    2.0000    0.3442    0.0000 C   0  0  0  0  0  0  0  0  0  0  0  0
    2.8718    1.8408    0.0000 C   0  0  0  0  0  0  0  0  0  0  0  0
   10.0742    0.2274    0.0000 H   0  0  0  0  0  0  0  0  0  0  0  0
   10.4727    0.9177    0.0000 H   0  0  0  0  0  0  0  0  0  0  0  0
    6.3773   -1.8446    0.0000 H   0  0  0  0  0  0  0  0  0  0  0  0
    5.0003    1.3076    0.0000 H   0  0  0  0  0  0  0  0  0  0  0  0
    4.2033    1.3106    0.0000 H   0  0  0  0  0  0  0  0  0  0  0  0
    9.3252    2.1200    0.0000 H   0  0  0  0  0  0  0  0  0  0  0  0
    3.7296   -0.2825    0.0000 H   0  0  0  0  0  0  0  0  0  0  0  0
   10.7282   -0.0700    0.0000 H   0  0  0  0  0  0  0  0  0  0  0  0
    5.8484    2.1608    0.0000 H   0  0  0  0  0  0  0  0  0  0  0  0
   10.7282   -3.3100    0.0000 H   0  0  0  0  0  0  0  0  0  0  0  0
   12.1311   -0.8800    0.0000 H   0  0  0  0  0  0  0  0  0  0  0  0
   11.3482    3.3100    0.0000 H   0  0  0  0  0  0  0  0  0  0  0  0
   10.7282    3.9300    0.0000 H   0  0  0  0  0  0  0  0  0  0  0  0
   10.1082    3.3100    0.0000 H   0  0  0  0  0  0  0  0  0  0  0  0
   11.2842    1.2731    0.0000 H   0  0  0  0  0  0  0  0  0  0  0  0
   12.1311    1.5000    0.0000 H   0  0  0  0  0  0  0  0  0  0  0  0
   11.9042    2.3469    0.0000 H   0  0  0  0  0  0  0  0  0  0  0  0
    3.9838   -2.2165    0.0000 H   0  0  0  0  0  0  0  0  0  0  0  0
    4.6062   -2.8341    0.0000 H   0  0  0  0  0  0  0  0  0  0  0  0
    5.2238   -2.2118    0.0000 H   0  0  0  0  0  0  0  0  0  0  0  0
    1.6921    0.8823    0.0000 H   0  0  0  0  0  0  0  0  0  0  0  0
    1.4619    0.0362    0.0000 H   0  0  0  0  0  0  0  0  0  0  0  0
    2.3079   -0.1940    0.0000 H   0  0  0  0  0  0  0  0  0  0  0  0
    3.4918    1.8384    0.0000 H   0  0  0  0  0  0  0  0  0  0  0  0
    2.8742    2.4608    0.0000 H   0  0  0  0  0  0  0  0  0  0  0  0
    2.2518    1.8432    0.0000 H   0  0  0  0  0  0  0  0  0  0  0  0
    8.9961   -3.3100    0.0000 H   0  0  0  0  0  0  0  0  0  0  0  0
   12.9972   -2.3800    0.0000 H   0  0  0  0  0  0  0  0  0  0  0  0
  1  9  1  0  0  0  0
  1 11  1  0  0  0  0
  2 15  1  0  0  0  0
  2 30  1  0  0  0  0
  3 13  1  0  0  0  0
  3 41  1  0  0  0  0
  4 12  2  0  0  0  0
  5 21  1  0  0  0  0
  5 59  1  0  0  0  0
  6 27  1  0  0  0  0
  6 60  1  0  0  0  0
  7  9  1  0  0  0  0
  7 12  1  0  0  0  0
  7 13  2  0  0  0  0
  8 11  2  0  0  0  0
  8 12  1  0  0  0  0
  8 14  1  0  0  0  0
  9 16  2  0  0  0  0
 10 13  1  0  0  0  0
 10 15  2  0  0  0  0
 10 17  1  0  0  0  0
 11 18  1  0  0  0  0
 14 19  1  0  0  0  0
 14 33  1  0  0  0  0
 14 34  1  0  0  0  0
 15 16  1  0  0  0  0
 16 35  1  0  0  0  0
 17 20  1  0  0  0  0
 17 36  1  0  0  0  0
 17 37  1  0  0  0  0
 18 21  2  0  0  0  0
 18 22  1  0  0  0  0
 19 23  2  0  0  0  0
 19 38  1  0  0  0  0
 20 24  2  0  0  0  0
 20 39  1  0  0  0  0
 21 25  1  0  0  0  0
 22 26  2  0  0  0  0
 22 40  1  0  0  0  0
 23 28  1  0  0  0  0
 23 29  1  0  0  0  0
 24 31  1  0  0  0  0
 24 32  1  0  0  0  0
 25 27  2  0  0  0  0
 25 42  1  0  0  0  0
 26 27  1  0  0  0  0
 26 43  1  0  0  0  0
 28 44  1  0  0  0  0
 28 45  1  0  0  0  0
 28 46  1  0  0  0  0
 29 47  1  0  0  0  0
 29 48  1  0  0  0  0
 29 49  1  0  0  0  0
 30 50  1  0  0  0  0
 30 51  1  0  0  0  0
 30 52  1  0  0  0  0
 31 53  1  0  0  0  0
 31 54  1  0  0  0  0
 31 55  1  0  0  0  0
 32 56  1  0  0  0  0
 32 57  1  0  0  0  0
 32 58  1  0  0  0  0
M  END
> <PUBCHEM_COMPOUND_CID>
44258292

> <PUBCHEM_COMPOUND_CANONICALIZED>
1

> <PUBCHEM_CACTVS_COMPLEXITY>
773

> <PUBCHEM_CACTVS_HBOND_ACCEPTOR>
6

> <PUBCHEM_CACTVS_HBOND_DONOR>
3

> <PUBCHEM_CACTVS_ROTATABLE_BOND>
6

> <PUBCHEM_CACTVS_SUBSKEYS>
AAADceB4OAAAAAAAAAAAAAAAAAAAAAAAAAAwYIAAAAAAAACBQAAAGgAACAAADASAmAIyBoAABgCIAqBSAAACCAAkIAAIiAEGCMgMJzaGNRqCeWCl4BUIuQeI7OzOIAACCAAIAABAAAQQABAAAAAAAAAAAA==

> <PUBCHEM_IUPAC_OPENEYE_NAME>
2-(2,4-dihydroxyphenyl)-5-hydroxy-7-methoxy-3,6-bis(3-methylbut-2-enyl)chromen-4-one

> <PUBCHEM_IUPAC_CAS_NAME>
2-(2,4-dihydroxyphenyl)-5-hydroxy-7-methoxy-3,6-bis(3-methylbut-2-enyl)-1-benzopyran-4-one

> <PUBCHEM_IUPAC_NAME_MARKUP>
2-(2,4-dihydroxyphenyl)-5-hydroxy-7-methoxy-3,6-bis(3-methylbut-2-enyl)chromen-4-one

> <PUBCHEM_IUPAC_NAME>
2-(2,4-dihydroxyphenyl)-5-hydroxy-7-methoxy-3,6-bis(3-methylbut-2-enyl)chromen-4-one

> <PUBCHEM_IUPAC_SYSTEMATIC_NAME>
2-[2,4-bis(oxidanyl)phenyl]-7-methoxy-3,6-bis(3-methylbut-2-enyl)-5-oxidanyl-chromen-4-one

> <PUBCHEM_IUPAC_TRADITIONAL_NAME>
2-(2,4-dihydroxyphenyl)-5-hydroxy-7-methoxy-3,6-bis(3-methylbut-2-enyl)chromone

> <PUBCHEM_IUPAC_INCHI>
InChI=1S/C26H28O6/c1-14(2)6-9-18-21(31-5)13-22-23(24(18)29)25(30)19(10-7-15(3)4)26(32-22)17-11-8-16(27)12-20(17)28/h6-8,11-13,27-29H,9-10H2,1-5H3

> <PUBCHEM_IUPAC_INCHIKEY>
AAXZLRPBJQFZQA-UHFFFAOYSA-N

> <PUBCHEM_XLOGP3>
5.9

> <PUBCHEM_EXACT_MASS>
436.188589

> <PUBCHEM_MOLECULAR_FORMULA>
C26H28O6

> <PUBCHEM_MOLECULAR_WEIGHT>
436.5

> <PUBCHEM_OPENEYE_CAN_SMILES>
CC(=CCC1=C(C=C2C(=C1O)C(=O)C(=C(O2)C3=C(C=C(C=C3)O)O)CC=C(C)C)OC)C

> <PUBCHEM_OPENEYE_ISO_SMILES>
CC(=CCC1=C(C=C2C(=C1O)C(=O)C(=C(O2)C3=C(C=C(C=C3)O)O)CC=C(C)C)OC)C

> <PUBCHEM_CACTVS_TPSA>
96.2

> <PUBCHEM_MONOISOTOPIC_WEIGHT>
436.188589

> <PUBCHEM_TOTAL_CHARGE>
0

> <PUBCHEM_HEAVY_ATOM_COUNT>
32

> <PUBCHEM_ATOM_DEF_STEREO_COUNT>
0

> <PUBCHEM_ATOM_UDEF_STEREO_COUNT>
0

> <PUBCHEM_BOND_DEF_STEREO_COUNT>
0

> <PUBCHEM_BOND_UDEF_STEREO_COUNT>
0

> <PUBCHEM_ISOTOPIC_ATOM_COUNT>
0

> <PUBCHEM_COMPONENT_COUNT>
1

> <PUBCHEM_CACTVS_TAUTO_COUNT>
-1

> <PUBCHEM_COORDINATE_TYPE>
1
5
255

> <PUBCHEM_BONDANNOTATIONS>
1  11  8
1  9  8
10  13  8
10  15  8
15  16  8
18  21  8
18  22  8
21  25  8
22  26  8
25  27  8
26  27  8
7  12  8
7  13  8
7  9  8
8  11  8
8  12  8
9  16  8

$$$$
44257938
  -OEChem-04052116542D

 72 76  0     1  0  0  0  0  0999 V2000
    5.1350    1.2500    0.0000 O   0  0  0  0  0  0  0  0  0  0  0  0
    8.5991   -1.7500    0.0000 O   0  0  0  0  0  0  0  0  0  0  0  0
    6.8671    3.2500    0.0000 O   0  0  0  0  0  0  0  0  0  0  0  0
    6.0010   -1.2500    0.0000 O   0  0  0  0  0  0  0  0  0  0  0  0
    5.1350    4.2500    0.0000 O   0  0  0  0  0  0  0  0  0  0  0  0
    6.0010   -3.2500    0.0000 O   0  0  0  0  0  0  0  0  0  0  0  0
    3.4030    3.2500    0.0000 O   0  0  0  0  0  0  0  0  0  0  0  0
    7.7331   -4.2500    0.0000 O   0  0  0  0  0  0  0  0  0  0  0  0
    9.4931   -0.2847    0.0000 O   0  0  0  0  0  0  0  0  0  0  0  0
    6.0010   -0.2500    0.0000 O   0  0  0  0  0  0  0  0  0  0  0  0
    7.7331    2.7500    0.0000 O   0  0  0  0  0  0  0  0  0  0  0  0
    2.5369    1.7500    0.0000 O   0  0  0  0  0  0  0  0  0  0  0  0
    9.4815    2.7846    0.0000 O   0  0  0  0  0  0  0  0  0  0  0  0
   12.1196   -2.7775    0.0000 O   0  0  0  0  0  0  0  0  0  0  0  0
   13.8555   -1.7842    0.0000 O   0  0  0  0  0  0  0  0  0  0  0  0
    6.0010    1.7500    0.0000 C   0  0  2  0  0  0  0  0  0  0  0  0
    7.7331   -1.2500    0.0000 C   0  0  2  0  0  0  0  0  0  0  0  0
    6.0010    2.7500    0.0000 C   0  0  3  0  0  0  0  0  0  0  0  0
    6.8671   -1.7500    0.0000 C   0  0  3  0  0  0  0  0  0  0  0  0
    5.1350    3.2500    0.0000 C   0  0  2  0  0  0  0  0  0  0  0  0
    6.8671   -2.7500    0.0000 C   0  0  3  0  0  0  0  0  0  0  0  0
    4.2690    2.7500    0.0000 C   0  0  1  0  0  0  0  0  0  0  0  0
    7.7331   -3.2500    0.0000 C   0  0  2  0  0  0  0  0  0  0  0  0
    4.2690    1.7500    0.0000 C   0  0  3  0  0  0  0  0  0  0  0  0
    7.7331   -0.2500    0.0000 C   0  0  0  0  0  0  0  0  0  0  0  0
    8.5991   -2.7500    0.0000 C   0  0  2  0  0  0  0  0  0  0  0  0
    6.8671    1.2500    0.0000 C   0  0  0  0  0  0  0  0  0  0  0  0
    6.8671    0.2500    0.0000 C   0  0  0  0  0  0  0  0  0  0  0  0
    8.5991    0.2500    0.0000 C   0  0  0  0  0  0  0  0  0  0  0  0
    7.7331    1.7500    0.0000 C   0  0  0  0  0  0  0  0  0  0  0  0
    8.5991    1.2500    0.0000 C   0  0  0  0  0  0  0  0  0  0  0  0
    3.4030    1.2500    0.0000 C   0  0  0  0  0  0  0  0  0  0  0  0
    9.4651   -3.2500    0.0000 C   0  0  0  0  0  0  0  0  0  0  0  0
    9.4931    1.7847    0.0000 C   0  0  0  0  0  0  0  0  0  0  0  0
   10.3991    0.2292    0.0000 C   0  0  0  0  0  0  0  0  0  0  0  0
   10.3991    1.2708    0.0000 C   0  0  0  0  0  0  0  0  0  0  0  0
   11.2632   -0.2742    0.0000 C   0  0  0  0  0  0  0  0  0  0  0  0
   11.2594   -1.2741    0.0000 C   0  0  0  0  0  0  0  0  0  0  0  0
   12.1312    0.2225    0.0000 C   0  0  0  0  0  0  0  0  0  0  0  0
   12.1235   -1.7775    0.0000 C   0  0  0  0  0  0  0  0  0  0  0  0
   12.9953   -0.2808    0.0000 C   0  0  0  0  0  0  0  0  0  0  0  0
   12.9914   -1.2808    0.0000 C   0  0  0  0  0  0  0  0  0  0  0  0
    6.0010    0.9000    0.0000 H   0  0  0  0  0  0  0  0  0  0  0  0
    8.4692   -0.8250    0.0000 H   0  0  0  0  0  0  0  0  0  0  0  0
    6.5380    2.4400    0.0000 H   0  0  0  0  0  0  0  0  0  0  0  0
    6.8671   -1.1300    0.0000 H   0  0  0  0  0  0  0  0  0  0  0  0
    5.6720    3.5600    0.0000 H   0  0  0  0  0  0  0  0  0  0  0  0
    6.3301   -2.4400    0.0000 H   0  0  0  0  0  0  0  0  0  0  0  0
    4.2690    3.3700    0.0000 H   0  0  0  0  0  0  0  0  0  0  0  0
    8.2700   -3.5600    0.0000 H   0  0  0  0  0  0  0  0  0  0  0  0
    4.2690    1.1300    0.0000 H   0  0  0  0  0  0  0  0  0  0  0  0
    9.1360   -2.4400    0.0000 H   0  0  0  0  0  0  0  0  0  0  0  0
    3.0044    0.7751    0.0000 H   0  0  0  0  0  0  0  0  0  0  0  0
    3.8015    0.7751    0.0000 H   0  0  0  0  0  0  0  0  0  0  0  0
    9.1551   -3.7869    0.0000 H   0  0  0  0  0  0  0  0  0  0  0  0
   10.0021   -3.5600    0.0000 H   0  0  0  0  0  0  0  0  0  0  0  0
    9.7751   -2.7131    0.0000 H   0  0  0  0  0  0  0  0  0  0  0  0
    6.8671    3.8700    0.0000 H   0  0  0  0  0  0  0  0  0  0  0  0
    5.4641   -1.5600    0.0000 H   0  0  0  0  0  0  0  0  0  0  0  0
    4.5981    4.5600    0.0000 H   0  0  0  0  0  0  0  0  0  0  0  0
    6.0010   -3.8700    0.0000 H   0  0  0  0  0  0  0  0  0  0  0  0
    3.4030    3.8700    0.0000 H   0  0  0  0  0  0  0  0  0  0  0  0
    8.2700   -4.5600    0.0000 H   0  0  0  0  0  0  0  0  0  0  0  0
    5.4641    0.0600    0.0000 H   0  0  0  0  0  0  0  0  0  0  0  0
    8.2700    3.0600    0.0000 H   0  0  0  0  0  0  0  0  0  0  0  0
   10.9349    1.5829    0.0000 H   0  0  0  0  0  0  0  0  0  0  0  0
    2.0000    1.4400    0.0000 H   0  0  0  0  0  0  0  0  0  0  0  0
   10.7212   -1.5821    0.0000 H   0  0  0  0  0  0  0  0  0  0  0  0
   12.1336    0.8425    0.0000 H   0  0  0  0  0  0  0  0  0  0  0  0
   13.5334    0.0271    0.0000 H   0  0  0  0  0  0  0  0  0  0  0  0
   12.6553   -3.0895    0.0000 H   0  0  0  0  0  0  0  0  0  0  0  0
   14.3936   -1.4762    0.0000 H   0  0  0  0  0  0  0  0  0  0  0  0
  1 16  1  0  0  0  0
  1 24  1  0  0  0  0
  2 17  1  0  0  0  0
  2 26  1  0  0  0  0
  3 18  1  0  0  0  0
  3 58  1  0  0  0  0
  4 19  1  0  0  0  0
  4 59  1  0  0  0  0
 20  5  1  6  0  0  0
  5 60  1  0  0  0  0
  6 21  1  0  0  0  0
  6 61  1  0  0  0  0
 22  7  1  1  0  0  0
  7 62  1  0  0  0  0
 23  8  1  6  0  0  0
  8 63  1  0  0  0  0
  9 29  1  0  0  0  0
  9 35  1  0  0  0  0
 10 28  1  0  0  0  0
 10 64  1  0  0  0  0
 11 30  1  0  0  0  0
 11 65  1  0  0  0  0
 12 32  1  0  0  0  0
 12 67  1  0  0  0  0
 13 34  2  0  0  0  0
 14 40  1  0  0  0  0
 14 71  1  0  0  0  0
 15 42  1  0  0  0  0
 15 72  1  0  0  0  0
 16 18  1  0  0  0  0
 16 27  1  0  0  0  0
 16 43  1  1  0  0  0
 17 19  1  0  0  0  0
 17 25  1  0  0  0  0
 17 44  1  1  0  0  0
 18 20  1  0  0  0  0
 18 45  1  0  0  0  0
 19 21  1  0  0  0  0
 19 46  1  0  0  0  0
 20 22  1  0  0  0  0
 20 47  1  0  0  0  0
 21 23  1  0  0  0  0
 21 48  1  0  0  0  0
 22 24  1  0  0  0  0
 22 49  1  0  0  0  0
 23 26  1  0  0  0  0
 23 50  1  0  0  0  0
 24 32  1  0  0  0  0
 24 51  1  0  0  0  0
 25 28  1  0  0  0  0
 25 29  2  0  0  0  0
 26 33  1  1  0  0  0
 26 52  1  0  0  0  0
 27 28  2  0  0  0  0
 27 30  1  0  0  0  0
 29 31  1  0  0  0  0
 30 31  2  0  0  0  0
 31 34  1  0  0  0  0
 32 53  1  0  0  0  0
 32 54  1  0  0  0  0
 33 55  1  0  0  0  0
 33 56  1  0  0  0  0
 33 57  1  0  0  0  0
 34 36  1  0  0  0  0
 35 36  2  0  0  0  0
 35 37  1  0  0  0  0
 36 66  1  0  0  0  0
 37 38  2  0  0  0  0
 37 39  1  0  0  0  0
 38 40  1  0  0  0  0
 38 68  1  0  0  0  0
 39 41  2  0  0  0  0
 39 69  1  0  0  0  0
 40 42  2  0  0  0  0
 41 42  1  0  0  0  0
 41 70  1  0  0  0  0
M  END
> <PUBCHEM_COMPOUND_CID>
44257938

> <PUBCHEM_COMPOUND_CANONICALIZED>
1

> <PUBCHEM_CACTVS_COMPLEXITY>
1010

> <PUBCHEM_CACTVS_HBOND_ACCEPTOR>
15

> <PUBCHEM_CACTVS_HBOND_DONOR>
11

> <PUBCHEM_CACTVS_ROTATABLE_BOND>
4

> <PUBCHEM_CACTVS_SUBSKEYS>
AAADceB4PAAAAAAAAAAAAAAAAAAAAAAAAAA0aIECAAAAAACBQAAAGgAACAAADBSgmAIyBoAABgCIAqBSAAACCAAkIAAIiAEGiMgNNzaGNRqCeWGl4BULuQfI7PzOIAADCAAIQABAAAYQABCAAAAAAAAAAA==

> <PUBCHEM_IUPAC_OPENEYE_NAME>
2-(3,4-dihydroxyphenyl)-5,7-dihydroxy-6-[(2S,4R,5S)-3,4,5-trihydroxy-6-(hydroxymethyl)tetrahydropyran-2-yl]-8-[(2S,5R,6S)-3,4,5-trihydroxy-6-methyl-tetrahydropyran-2-yl]chromen-4-one

> <PUBCHEM_IUPAC_CAS_NAME>
2-(3,4-dihydroxyphenyl)-5,7-dihydroxy-6-[(2S,4R,5S)-3,4,5-trihydroxy-6-(hydroxymethyl)-2-oxanyl]-8-[(2S,5R,6S)-3,4,5-trihydroxy-6-methyl-2-oxanyl]-1-benzopyran-4-one

> <PUBCHEM_IUPAC_NAME_MARKUP>
2-(3,4-dihydroxyphenyl)-5,7-dihydroxy-6-[(2<I>S</I>,4<I>R</I>,5<I>S</I>)-3,4,5-trihydroxy-6-(hydroxymethyl)oxan-2-yl]-8-[(2<I>S</I>,5<I>R</I>,6<I>S</I>)-3,4,5-trihydroxy-6-methyloxan-2-yl]chromen-4-one

> <PUBCHEM_IUPAC_NAME>
2-(3,4-dihydroxyphenyl)-5,7-dihydroxy-6-[(2S,4R,5S)-3,4,5-trihydroxy-6-(hydroxymethyl)oxan-2-yl]-8-[(2S,5R,6S)-3,4,5-trihydroxy-6-methyloxan-2-yl]chromen-4-one

> <PUBCHEM_IUPAC_SYSTEMATIC_NAME>
2-[3,4-bis(oxidanyl)phenyl]-6-[(2S,4R,5S)-6-(hydroxymethyl)-3,4,5-tris(oxidanyl)oxan-2-yl]-8-[(2S,5R,6S)-6-methyl-3,4,5-tris(oxidanyl)oxan-2-yl]-5,7-bis(oxidanyl)chromen-4-one

> <PUBCHEM_IUPAC_TRADITIONAL_NAME>
2-(3,4-dihydroxyphenyl)-5,7-dihydroxy-6-[(2S,4R,5S)-3,4,5-trihydroxy-6-methylol-tetrahydropyran-2-yl]-8-[(2S,5R,6S)-3,4,5-trihydroxy-6-methyl-tetrahydropyran-2-yl]chromone

> <PUBCHEM_IUPAC_INCHI>
InChI=1S/C27H30O15/c1-7-17(32)21(36)23(38)27(40-7)16-20(35)15(26-24(39)22(37)18(33)13(6-28)42-26)19(34)14-11(31)5-12(41-25(14)16)8-2-3-9(29)10(30)4-8/h2-5,7,13,17-18,21-24,26-30,32-39H,6H2,1H3/t7-,13?,17-,18+,21?,22-,23?,24?,26-,27-/m0/s1

> <PUBCHEM_IUPAC_INCHIKEY>
NPMISSRZJYIZNR-SYBXYHKOSA-N

> <PUBCHEM_XLOGP3_AA>
-2.1

> <PUBCHEM_EXACT_MASS>
594.15847

> <PUBCHEM_MOLECULAR_FORMULA>
C27H30O15

> <PUBCHEM_MOLECULAR_WEIGHT>
594.5

> <PUBCHEM_OPENEYE_CAN_SMILES>
CC1C(C(C(C(O1)C2=C3C(=C(C(=C2O)C4C(C(C(C(O4)CO)O)O)O)O)C(=O)C=C(O3)C5=CC(=C(C=C5)O)O)O)O)O

> <PUBCHEM_OPENEYE_ISO_SMILES>
C[C@H]1[C@@H](C(C([C@@H](O1)C2=C3C(=C(C(=C2O)[C@H]4C([C@H]([C@@H](C(O4)CO)O)O)O)O)C(=O)C=C(O3)C5=CC(=C(C=C5)O)O)O)O)O

> <PUBCHEM_CACTVS_TPSA>
267

> <PUBCHEM_MONOISOTOPIC_WEIGHT>
594.15847

> <PUBCHEM_TOTAL_CHARGE>
0

> <PUBCHEM_HEAVY_ATOM_COUNT>
42

> <PUBCHEM_ATOM_DEF_STEREO_COUNT>
6

> <PUBCHEM_ATOM_UDEF_STEREO_COUNT>
4

> <PUBCHEM_BOND_DEF_STEREO_COUNT>
0

> <PUBCHEM_BOND_UDEF_STEREO_COUNT>
0

> <PUBCHEM_ISOTOPIC_ATOM_COUNT>
0

> <PUBCHEM_COMPONENT_COUNT>
1

> <PUBCHEM_CACTVS_TAUTO_COUNT>
-1

> <PUBCHEM_COORDINATE_TYPE>
1
5
255

> <PUBCHEM_BONDANNOTATIONS>
16  43  5
17  44  5
24  32  3
25  28  8
25  29  8
26  33  5
27  28  8
27  30  8
29  31  8
18  3  3
30  31  8
31  34  8
34  36  8
35  36  8
37  38  8
37  39  8
38  40  8
39  41  8
19  4  3
40  42  8
41  42  8
20  5  6
21  6  3
22  7  5
23  8  6
9  29  8
9  35  8

$$$$
44257868
  -OEChem-04052116542D

 46 49  0     1  0  0  0  0  0999 V2000
   10.4366    0.2233    0.0000 O   0  0  0  0  0  0  0  0  0  0  0  0
    6.9006    0.2511    0.0000 O   0  0  0  0  0  0  0  0  0  0  0  0
    9.5386    2.7857    0.0000 O   0  0  0  0  0  0  0  0  0  0  0  0
    8.6605   -2.7836    0.0000 O   0  0  0  0  0  0  0  0  0  0  0  0
    6.9121   -2.8182    0.0000 O   0  0  0  0  0  0  0  0  0  0  0  0
    2.5381    1.7506    0.0000 O   0  0  0  0  0  0  0  0  0  0  0  0
   10.4446    1.2648    0.0000 C   0  0  0  0  0  0  0  0  0  0  0  0
    9.5425    1.7857    0.0000 C   0  0  3  0  0  0  0  0  0  0  0  0
    8.6445    1.2579    0.0000 C   0  0  0  0  0  0  0  0  0  0  0  0
    8.6605    0.2164    0.0000 C   0  0  0  0  0  0  0  0  0  0  0  0
    9.5266   -0.2836    0.0000 C   0  0  0  0  0  0  0  0  0  0  0  0
    7.7945   -0.2836    0.0000 C   0  0  0  0  0  0  0  0  0  0  0  0
   10.9479    2.1290    0.0000 C   0  0  0  0  0  0  0  0  0  0  0  0
   11.4446    1.2610    0.0000 C   0  0  0  0  0  0  0  0  0  0  0  0
    7.7945   -1.2836    0.0000 C   0  0  0  0  0  0  0  0  0  0  0  0
    5.9945   -0.2628    0.0000 C   0  0  3  0  0  0  0  0  0  0  0  0
    5.9945   -1.3044    0.0000 C   0  0  0  0  0  0  0  0  0  0  0  0
    9.5266   -1.2836    0.0000 C   0  0  0  0  0  0  0  0  0  0  0  0
    8.6605   -1.7836    0.0000 C   0  0  0  0  0  0  0  0  0  0  0  0
    6.9006   -1.8182    0.0000 C   0  0  0  0  0  0  0  0  0  0  0  0
    5.1304    0.2406    0.0000 C   0  0  0  0  0  0  0  0  0  0  0  0
    4.2625   -0.2561    0.0000 C   0  0  0  0  0  0  0  0  0  0  0  0
    5.1343    1.2406    0.0000 C   0  0  0  0  0  0  0  0  0  0  0  0
    3.3984    0.2472    0.0000 C   0  0  0  0  0  0  0  0  0  0  0  0
    4.2702    1.7439    0.0000 C   0  0  0  0  0  0  0  0  0  0  0  0
    3.4022    1.2472    0.0000 C   0  0  0  0  0  0  0  0  0  0  0  0
   10.0788    2.0967    0.0000 H   0  0  0  0  0  0  0  0  0  0  0  0
    8.4264    1.8383    0.0000 H   0  0  0  0  0  0  0  0  0  0  0  0
    8.0353    1.1424    0.0000 H   0  0  0  0  0  0  0  0  0  0  0  0
   11.4837    1.8169    0.0000 H   0  0  0  0  0  0  0  0  0  0  0  0
   11.2600    2.6647    0.0000 H   0  0  0  0  0  0  0  0  0  0  0  0
   10.4122    2.4410    0.0000 H   0  0  0  0  0  0  0  0  0  0  0  0
   11.4422    0.6410    0.0000 H   0  0  0  0  0  0  0  0  0  0  0  0
   12.0646    1.2586    0.0000 H   0  0  0  0  0  0  0  0  0  0  0  0
   11.4470    1.8810    0.0000 H   0  0  0  0  0  0  0  0  0  0  0  0
    5.9981    0.3572    0.0000 H   0  0  0  0  0  0  0  0  0  0  0  0
    5.3836   -1.1983    0.0000 H   0  0  0  0  0  0  0  0  0  0  0  0
    5.7854   -1.8881    0.0000 H   0  0  0  0  0  0  0  0  0  0  0  0
   10.0635   -1.5936    0.0000 H   0  0  0  0  0  0  0  0  0  0  0  0
    9.0005    3.0936    0.0000 H   0  0  0  0  0  0  0  0  0  0  0  0
    4.2601   -0.8761    0.0000 H   0  0  0  0  0  0  0  0  0  0  0  0
    5.6724    1.5485    0.0000 H   0  0  0  0  0  0  0  0  0  0  0  0
    9.1975   -3.0936    0.0000 H   0  0  0  0  0  0  0  0  0  0  0  0
    2.8602   -0.0607    0.0000 H   0  0  0  0  0  0  0  0  0  0  0  0
    4.2726    2.3639    0.0000 H   0  0  0  0  0  0  0  0  0  0  0  0
    2.0000    1.4426    0.0000 H   0  0  0  0  0  0  0  0  0  0  0  0
  1  7  1  0  0  0  0
  1 11  1  0  0  0  0
  2 12  1  0  0  0  0
  2 16  1  0  0  0  0
  3  8  1  0  0  0  0
  3 40  1  0  0  0  0
  4 19  1  0  0  0  0
  4 43  1  0  0  0  0
  5 20  2  0  0  0  0
  6 26  1  0  0  0  0
  6 46  1  0  0  0  0
  7  8  1  0  0  0  0
  7 13  1  0  0  0  0
  7 14  1  0  0  0  0
  8  9  1  0  0  0  0
  8 27  1  0  0  0  0
  9 10  1  0  0  0  0
  9 28  1  0  0  0  0
  9 29  1  0  0  0  0
 10 11  2  0  0  0  0
 10 12  1  0  0  0  0
 11 18  1  0  0  0  0
 12 15  2  0  0  0  0
 13 30  1  0  0  0  0
 13 31  1  0  0  0  0
 13 32  1  0  0  0  0
 14 33  1  0  0  0  0
 14 34  1  0  0  0  0
 14 35  1  0  0  0  0
 15 19  1  0  0  0  0
 15 20  1  0  0  0  0
 16 17  1  0  0  0  0
 16 21  1  0  0  0  0
 16 36  1  0  0  0  0
 17 20  1  0  0  0  0
 17 37  1  0  0  0  0
 17 38  1  0  0  0  0
 18 19  2  0  0  0  0
 18 39  1  0  0  0  0
 21 22  2  0  0  0  0
 21 23  1  0  0  0  0
 22 24  1  0  0  0  0
 22 41  1  0  0  0  0
 23 25  2  0  0  0  0
 23 42  1  0  0  0  0
 24 26  2  0  0  0  0
 24 44  1  0  0  0  0
 25 26  1  0  0  0  0
 25 45  1  0  0  0  0
M  END
> <PUBCHEM_COMPOUND_CID>
44257868

> <PUBCHEM_COMPOUND_CANONICALIZED>
1

> <PUBCHEM_CACTVS_COMPLEXITY>
540

> <PUBCHEM_CACTVS_HBOND_ACCEPTOR>
6

> <PUBCHEM_CACTVS_HBOND_DONOR>
3

> <PUBCHEM_CACTVS_ROTATABLE_BOND>
1

> <PUBCHEM_CACTVS_SUBSKEYS>
AAADceB4OAAAAAAAAAAAAAAAAAAAAAAAAAA0aIEAAAAAAACRQAAAGgAACAAADFSgmAIyBoAABgCIAqBSAAACCAAkIAAIiAEGCMgNNzaGNRqCeWCl4BULuQfI7PzOIAACCAAIAABAAAQQABAAAAAAAAAAAA==

> <PUBCHEM_IUPAC_OPENEYE_NAME>
5,9-dihydroxy-2-(4-hydroxyphenyl)-8,8-dimethyl-2,3,9,10-tetrahydropyrano[2,3-h]chromen-4-one

> <PUBCHEM_IUPAC_CAS_NAME>
5,9-dihydroxy-2-(4-hydroxyphenyl)-8,8-dimethyl-2,3,9,10-tetrahydropyrano[2,3-h][1]benzopyran-4-one

> <PUBCHEM_IUPAC_NAME_MARKUP>
5,9-dihydroxy-2-(4-hydroxyphenyl)-8,8-dimethyl-2,3,9,10-tetrahydropyrano[2,3-h]chromen-4-one

> <PUBCHEM_IUPAC_NAME>
5,9-dihydroxy-2-(4-hydroxyphenyl)-8,8-dimethyl-2,3,9,10-tetrahydropyrano[2,3-h]chromen-4-one

> <PUBCHEM_IUPAC_SYSTEMATIC_NAME>
2-(4-hydroxyphenyl)-8,8-dimethyl-5,9-bis(oxidanyl)-2,3,9,10-tetrahydropyrano[2,3-h]chromen-4-one

> <PUBCHEM_IUPAC_TRADITIONAL_NAME>
5,9-dihydroxy-2-(4-hydroxyphenyl)-8,8-dimethyl-2,3,9,10-tetrahydropyrano[2,3-h]chromen-4-one

> <PUBCHEM_IUPAC_INCHI>
InChI=1S/C20H20O6/c1-20(2)17(24)7-12-16(26-20)9-14(23)18-13(22)8-15(25-19(12)18)10-3-5-11(21)6-4-10/h3-6,9,15,17,21,23-24H,7-8H2,1-2H3

> <PUBCHEM_IUPAC_INCHIKEY>
ASCNCUCRYYUACO-UHFFFAOYSA-N

> <PUBCHEM_XLOGP3_AA>
2.8

> <PUBCHEM_EXACT_MASS>
356.125988

> <PUBCHEM_MOLECULAR_FORMULA>
C20H20O6

> <PUBCHEM_MOLECULAR_WEIGHT>
356.4

> <PUBCHEM_OPENEYE_CAN_SMILES>
CC1(C(CC2=C(O1)C=C(C3=C2OC(CC3=O)C4=CC=C(C=C4)O)O)O)C

> <PUBCHEM_OPENEYE_ISO_SMILES>
CC1(C(CC2=C(O1)C=C(C3=C2OC(CC3=O)C4=CC=C(C=C4)O)O)O)C

> <PUBCHEM_CACTVS_TPSA>
96.2

> <PUBCHEM_MONOISOTOPIC_WEIGHT>
356.125988

> <PUBCHEM_TOTAL_CHARGE>
0

> <PUBCHEM_HEAVY_ATOM_COUNT>
26

> <PUBCHEM_ATOM_DEF_STEREO_COUNT>
0

> <PUBCHEM_ATOM_UDEF_STEREO_COUNT>
2

> <PUBCHEM_BOND_DEF_STEREO_COUNT>
0

> <PUBCHEM_BOND_UDEF_STEREO_COUNT>
0

> <PUBCHEM_ISOTOPIC_ATOM_COUNT>
0

> <PUBCHEM_COMPONENT_COUNT>
1

> <PUBCHEM_CACTVS_TAUTO_COUNT>
-1

> <PUBCHEM_COORDINATE_TYPE>
1
5
255

> <PUBCHEM_BONDANNOTATIONS>
10  11  8
10  12  8
11  18  8
12  15  8
15  19  8
16  21  3
18  19  8
21  22  8
21  23  8
22  24  8
23  25  8
24  26  8
25  26  8
8  3  3

$$$$
44257396
  -OEChem-04052116542D

 90 96  0     1  0  0  0  0  0999 V2000
    7.7331   -3.9635    0.0000 O   0  0  0  0  0  0  0  0  0  0  0  0
   12.3658    1.0284    0.0000 O   0  0  0  0  0  0  0  0  0  0  0  0
    9.4651   -3.9635    0.0000 O   0  0  0  0  0  0  0  0  0  0  0  0
    6.0010   -2.9635    0.0000 O   0  0  0  0  0  0  0  0  0  0  0  0
    9.4929   -0.8556    0.0000 O   0  0  0  0  0  0  0  0  0  0  0  0
    6.0010   -5.9635    0.0000 O   0  0  0  0  0  0  0  0  0  0  0  0
    7.7331   -6.9635    0.0000 O   0  0  0  0  0  0  0  0  0  0  0  0
   14.4485    2.7604    0.0000 O   0  0  0  0  0  0  0  0  0  0  0  0
    9.4651   -5.9635    0.0000 O   0  0  0  0  0  0  0  0  0  0  0  0
    4.2690   -2.9635    0.0000 O   0  0  0  0  0  0  0  0  0  0  0  0
    6.0010   -0.9635    0.0000 O   0  0  0  0  0  0  0  0  0  0  0  0
    4.2690    0.0365    0.0000 O   0  0  0  0  0  0  0  0  0  0  0  0
   10.8859    3.6380    0.0000 O   0  0  0  0  0  0  0  0  0  0  0  0
    2.5369   -0.9635    0.0000 O   0  0  0  0  0  0  0  0  0  0  0  0
   12.3680    6.4055    0.0000 O   0  0  0  0  0  0  0  0  0  0  0  0
   14.4596    6.4055    0.0000 O   0  0  0  0  0  0  0  0  0  0  0  0
    6.8671   -4.4635    0.0000 C   0  0  1  0  0  0  0  0  0  0  0  0
    6.8671   -5.4635    0.0000 C   0  0  2  0  0  0  0  0  0  0  0  0
    7.7331   -5.9635    0.0000 C   0  0  1  0  0  0  0  0  0  0  0  0
    8.5991   -5.4635    0.0000 C   0  0  2  0  0  0  0  0  0  0  0  0
    8.5991   -4.4635    0.0000 C   0  0  1  0  0  0  0  0  0  0  0  0
   12.3791    2.7604    0.0000 C   0  0  3  0  0  0  0  0  0  0  0  0
   12.8725    1.8906    0.0000 C   0  0  3  0  0  0  0  0  0  0  0  0
    6.0010   -3.9635    0.0000 C   0  0  0  0  0  0  0  0  0  0  0  0
   10.8520    0.1301    0.0000 C   0  0  0  0  0  0  0  0  0  0  0  0
   10.3312   -1.4635    0.0000 C   0  0  3  0  0  0  0  0  0  0  0  0
   11.1694   -0.8556    0.0000 C   0  0  0  0  0  0  0  0  0  0  0  0
   11.3658    1.0361    0.0000 C   0  0  0  0  0  0  0  0  0  0  0  0
   10.8725    1.9060    0.0000 C   0  0  0  0  0  0  0  0  0  0  0  0
   11.3792    2.7681    0.0000 C   0  0  0  0  0  0  0  0  0  0  0  0
   12.8930    3.6665    0.0000 C   0  0  0  0  0  0  0  0  0  0  0  0
   13.9138    1.8665    0.0000 C   0  0  0  0  0  0  0  0  0  0  0  0
    5.1350   -2.4635    0.0000 C   0  0  2  0  0  0  0  0  0  0  0  0
    5.1350   -1.4635    0.0000 C   0  0  1  0  0  0  0  0  0  0  0  0
    9.8104    0.1301    0.0000 C   0  0  0  0  0  0  0  0  0  0  0  0
    4.2690   -0.9635    0.0000 C   0  0  2  0  0  0  0  0  0  0  0  0
   10.3312   -2.4635    0.0000 C   0  0  0  0  0  0  0  0  0  0  0  0
    9.4651   -2.9635    0.0000 C   0  0  0  0  0  0  0  0  0  0  0  0
    3.4030   -1.4635    0.0000 C   0  0  2  0  0  0  0  0  0  0  0  0
   13.9346    3.6665    0.0000 C   0  0  0  0  0  0  0  0  0  0  0  0
    9.8312    1.9301    0.0000 C   0  0  0  0  0  0  0  0  0  0  0  0
    3.4030   -2.4635    0.0000 C   0  0  0  0  0  0  0  0  0  0  0  0
    9.2965    1.0361    0.0000 C   0  0  0  0  0  0  0  0  0  0  0  0
   12.3361    4.5976    0.0000 C   0  0  0  0  0  0  0  0  0  0  0  0
   14.4915    4.5976    0.0000 C   0  0  0  0  0  0  0  0  0  0  0  0
   12.8713    5.5414    0.0000 C   0  0  0  0  0  0  0  0  0  0  0  0
   11.1972   -2.9635    0.0000 C   0  0  0  0  0  0  0  0  0  0  0  0
   13.9563    5.5414    0.0000 C   0  0  0  0  0  0  0  0  0  0  0  0
   12.8646    7.2735    0.0000 C   0  0  0  0  0  0  0  0  0  0  0  0
   15.4596    6.4017    0.0000 C   0  0  0  0  0  0  0  0  0  0  0  0
    6.8671   -3.8435    0.0000 H   0  0  0  0  0  0  0  0  0  0  0  0
    6.8671   -6.0835    0.0000 H   0  0  0  0  0  0  0  0  0  0  0  0
    7.1962   -6.2735    0.0000 H   0  0  0  0  0  0  0  0  0  0  0  0
    8.5991   -6.0835    0.0000 H   0  0  0  0  0  0  0  0  0  0  0  0
    8.5991   -3.8435    0.0000 H   0  0  0  0  0  0  0  0  0  0  0  0
   12.0691    3.2974    0.0000 H   0  0  0  0  0  0  0  0  0  0  0  0
   13.1741    1.3489    0.0000 H   0  0  0  0  0  0  0  0  0  0  0  0
    5.3905   -3.8558    0.0000 H   0  0  0  0  0  0  0  0  0  0  0  0
    5.7890   -4.5461    0.0000 H   0  0  0  0  0  0  0  0  0  0  0  0
    9.7789   -1.7452    0.0000 H   0  0  0  0  0  0  0  0  0  0  0  0
   11.4786   -1.3929    0.0000 H   0  0  0  0  0  0  0  0  0  0  0  0
   11.7363   -0.6045    0.0000 H   0  0  0  0  0  0  0  0  0  0  0  0
    5.6720   -2.1535    0.0000 H   0  0  0  0  0  0  0  0  0  0  0  0
   13.7936    1.2582    0.0000 H   0  0  0  0  0  0  0  0  0  0  0  0
   14.4925    1.6440    0.0000 H   0  0  0  0  0  0  0  0  0  0  0  0
    5.1350   -0.8435    0.0000 H   0  0  0  0  0  0  0  0  0  0  0  0
    3.7320   -0.6535    0.0000 H   0  0  0  0  0  0  0  0  0  0  0  0
    9.2531   -2.3808    0.0000 H   0  0  0  0  0  0  0  0  0  0  0  0
    8.8546   -3.0711    0.0000 H   0  0  0  0  0  0  0  0  0  0  0  0
    3.4030   -0.8435    0.0000 H   0  0  0  0  0  0  0  0  0  0  0  0
    9.5316    2.4729    0.0000 H   0  0  0  0  0  0  0  0  0  0  0  0
    2.7924   -2.3558    0.0000 H   0  0  0  0  0  0  0  0  0  0  0  0
    3.1909   -3.0461    0.0000 H   0  0  0  0  0  0  0  0  0  0  0  0
    8.6765    1.0433    0.0000 H   0  0  0  0  0  0  0  0  0  0  0  0
    5.4641   -5.6535    0.0000 H   0  0  0  0  0  0  0  0  0  0  0  0
    7.1962   -7.2735    0.0000 H   0  0  0  0  0  0  0  0  0  0  0  0
   10.0021   -5.6535    0.0000 H   0  0  0  0  0  0  0  0  0  0  0  0
   11.7161    4.5905    0.0000 H   0  0  0  0  0  0  0  0  0  0  0  0
   15.1115    4.5905    0.0000 H   0  0  0  0  0  0  0  0  0  0  0  0
   11.1972   -3.5835    0.0000 H   0  0  0  0  0  0  0  0  0  0  0  0
   11.7341   -2.6535    0.0000 H   0  0  0  0  0  0  0  0  0  0  0  0
    6.0010   -0.3435    0.0000 H   0  0  0  0  0  0  0  0  0  0  0  0
    3.7320    0.3465    0.0000 H   0  0  0  0  0  0  0  0  0  0  0  0
    2.0000   -1.2735    0.0000 H   0  0  0  0  0  0  0  0  0  0  0  0
   13.4028    6.9655    0.0000 H   0  0  0  0  0  0  0  0  0  0  0  0
   13.1726    7.8116    0.0000 H   0  0  0  0  0  0  0  0  0  0  0  0
   12.3265    7.5814    0.0000 H   0  0  0  0  0  0  0  0  0  0  0  0
   15.4572    5.7817    0.0000 H   0  0  0  0  0  0  0  0  0  0  0  0
   16.0796    6.3993    0.0000 H   0  0  0  0  0  0  0  0  0  0  0  0
   15.4620    7.0217    0.0000 H   0  0  0  0  0  0  0  0  0  0  0  0
  1 17  1  0  0  0  0
  1 21  1  0  0  0  0
  2 23  1  0  0  0  0
  2 28  1  0  0  0  0
 21  3  1  1  0  0  0
  3 38  1  0  0  0  0
  4 24  1  0  0  0  0
 33  4  1  6  0  0  0
  5 26  1  0  0  0  0
  5 35  1  0  0  0  0
 18  6  1  6  0  0  0
  6 75  1  0  0  0  0
 19  7  1  1  0  0  0
  7 76  1  0  0  0  0
  8 32  1  0  0  0  0
  8 40  1  0  0  0  0
 20  9  1  6  0  0  0
  9 77  1  0  0  0  0
 10 33  1  0  0  0  0
 10 42  1  0  0  0  0
 34 11  1  1  0  0  0
 11 82  1  0  0  0  0
 36 12  1  6  0  0  0
 12 83  1  0  0  0  0
 13 30  2  0  0  0  0
 39 14  1  6  0  0  0
 14 84  1  0  0  0  0
 15 46  1  0  0  0  0
 15 49  1  0  0  0  0
 16 48  1  0  0  0  0
 16 50  1  0  0  0  0
 17 18  1  0  0  0  0
 17 24  1  1  0  0  0
 17 51  1  0  0  0  0
 18 19  1  0  0  0  0
 18 52  1  0  0  0  0
 19 20  1  0  0  0  0
 19 53  1  0  0  0  0
 20 21  1  0  0  0  0
 20 54  1  0  0  0  0
 21 55  1  0  0  0  0
 22 23  1  0  0  0  0
 22 30  1  0  0  0  0
 22 31  1  0  0  0  0
 22 56  1  0  0  0  0
 23 32  1  0  0  0  0
 23 57  1  0  0  0  0
 24 58  1  0  0  0  0
 24 59  1  0  0  0  0
 25 27  1  0  0  0  0
 25 28  1  0  0  0  0
 25 35  2  0  0  0  0
 26 27  1  0  0  0  0
 26 37  1  0  0  0  0
 26 60  1  0  0  0  0
 27 61  1  0  0  0  0
 27 62  1  0  0  0  0
 28 29  2  0  0  0  0
 29 30  1  0  0  0  0
 29 41  1  0  0  0  0
 31 40  1  0  0  0  0
 31 44  2  0  0  0  0
 32 64  1  0  0  0  0
 32 65  1  0  0  0  0
 33 34  1  0  0  0  0
 33 63  1  0  0  0  0
 34 36  1  0  0  0  0
 34 66  1  0  0  0  0
 35 43  1  0  0  0  0
 36 39  1  0  0  0  0
 36 67  1  0  0  0  0
 37 38  1  0  0  0  0
 37 47  2  0  0  0  0
 38 68  1  0  0  0  0
 38 69  1  0  0  0  0
 39 42  1  0  0  0  0
 39 70  1  0  0  0  0
 40 45  2  0  0  0  0
 41 43  2  0  0  0  0
 41 71  1  0  0  0  0
 42 72  1  0  0  0  0
 42 73  1  0  0  0  0
 43 74  1  0  0  0  0
 44 46  1  0  0  0  0
 44 78  1  0  0  0  0
 45 48  1  0  0  0  0
 45 79  1  0  0  0  0
 46 48  2  0  0  0  0
 47 80  1  0  0  0  0
 47 81  1  0  0  0  0
 49 85  1  0  0  0  0
 49 86  1  0  0  0  0
 49 87  1  0  0  0  0
 50 88  1  0  0  0  0
 50 89  1  0  0  0  0
 50 90  1  0  0  0  0
M  END
> <PUBCHEM_COMPOUND_CID>
44257396

> <PUBCHEM_COMPOUND_CANONICALIZED>
1

> <PUBCHEM_CACTVS_COMPLEXITY>
1210

> <PUBCHEM_CACTVS_HBOND_ACCEPTOR>
16

> <PUBCHEM_CACTVS_HBOND_DONOR>
6

> <PUBCHEM_CACTVS_ROTATABLE_BOND>
9

> <PUBCHEM_CACTVS_SUBSKEYS>
AAADcfB8PgAAAAAAAAAAAAAAAAAAASAAAAA0aJEiAAAAAEiRQAAAGgAACAAADRSwmAMyDoAABgCIAqBSAAACCAAkIAAIiAEGiMgdNzaENRqieWKl4BUPqYfK7PzOoQADCAAIQABCAAYQABCAAAAAAAAAAA==

> <PUBCHEM_IUPAC_OPENEYE_NAME>
16,17-dimethoxy-6-[1-[[(2R,3R,4S,5S,6R)-3,4,5-trihydroxy-6-[[(2S,3R,4S,5S)-3,4,5-trihydroxytetrahydropyran-2-yl]oxymethyl]tetrahydropyran-2-yl]oxymethyl]vinyl]-2,7,20-trioxapentacyclo[11.8.0.03,11.04,8.014,19]henicosa-3(11),4(8),9,14,16,18-hexaen-12-one

> <PUBCHEM_IUPAC_CAS_NAME>
16,17-dimethoxy-6-[3-[[(2R,3R,4S,5S,6R)-3,4,5-trihydroxy-6-[[(2S,3R,4S,5S)-3,4,5-trihydroxy-2-oxanyl]oxymethyl]-2-oxanyl]oxy]prop-1-en-2-yl]-2,7,20-trioxapentacyclo[11.8.0.03,11.04,8.014,19]heneicosa-3(11),4(8),9,14,16,18-hexaen-12-one

> <PUBCHEM_IUPAC_NAME_MARKUP>
16,17-dimethoxy-6-[3-[(2<I>R</I>,3<I>R</I>,4<I>S</I>,5<I>S</I>,6<I>R</I>)-3,4,5-trihydroxy-6-[[(2<I>S</I>,3<I>R</I>,4<I>S</I>,5<I>S</I>)-3,4,5-trihydroxyoxan-2-yl]oxymethyl]oxan-2-yl]oxyprop-1-en-2-yl]-2,7,20-trioxapentacyclo[11.8.0.0<SUP>3,11</SUP>.0<SUP>4,8</SUP>.0<SUP>14,19</SUP>]henicosa-3(11),4(8),9,14,16,18-hexaen-12-one

> <PUBCHEM_IUPAC_NAME>
16,17-dimethoxy-6-[3-[(2R,3R,4S,5S,6R)-3,4,5-trihydroxy-6-[[(2S,3R,4S,5S)-3,4,5-trihydroxyoxan-2-yl]oxymethyl]oxan-2-yl]oxyprop-1-en-2-yl]-2,7,20-trioxapentacyclo[11.8.0.03,11.04,8.014,19]henicosa-3(11),4(8),9,14,16,18-hexaen-12-one

> <PUBCHEM_IUPAC_SYSTEMATIC_NAME>
16,17-dimethoxy-6-[3-[(2R,3R,4S,5S,6R)-3,4,5-tris(oxidanyl)-6-[[(2S,3R,4S,5S)-3,4,5-tris(oxidanyl)oxan-2-yl]oxymethyl]oxan-2-yl]oxyprop-1-en-2-yl]-2,7,20-trioxapentacyclo[11.8.0.03,11.04,8.014,19]henicosa-3(11),4(8),9,14,16,18-hexaen-12-one

> <PUBCHEM_IUPAC_TRADITIONAL_NAME>
16,17-dimethoxy-6-[1-[[(2R,3R,4S,5S,6R)-3,4,5-trihydroxy-6-[[(2S,3R,4S,5S)-3,4,5-trihydroxytetrahydropyran-2-yl]oxymethyl]tetrahydropyran-2-yl]oxymethyl]vinyl]-2,7,20-trioxapentacyclo[11.8.0.03,11.04,8.014,19]heneicosa-3(11),4(8),9,14,16,18-hexaen-12-one

> <PUBCHEM_IUPAC_INCHI>
InChI=1S/C34H40O16/c1-13(9-45-34-31(41)29(39)28(38)24(50-34)12-47-33-30(40)27(37)17(35)10-46-33)19-7-16-18(48-19)5-4-14-26(36)25-15-6-21(42-2)22(43-3)8-20(15)44-11-23(25)49-32(14)16/h4-6,8,17,19,23-25,27-31,33-35,37-41H,1,7,9-12H2,2-3H3/t17-,19?,23?,24+,25?,27-,28+,29-,30+,31+,33-,34+/m0/s1

> <PUBCHEM_IUPAC_INCHIKEY>
CMQOKNQYLSMKJC-SQVUTHPVSA-N

> <PUBCHEM_XLOGP3>
-0.8

> <PUBCHEM_EXACT_MASS>
704.231635

> <PUBCHEM_MOLECULAR_FORMULA>
C34H40O16

> <PUBCHEM_MOLECULAR_WEIGHT>
704.7

> <PUBCHEM_OPENEYE_CAN_SMILES>
COC1=C(C=C2C(=C1)C3C(CO2)OC4=C(C3=O)C=CC5=C4CC(O5)C(=C)COC6C(C(C(C(O6)COC7C(C(C(CO7)O)O)O)O)O)O)OC

> <PUBCHEM_OPENEYE_ISO_SMILES>
COC1=C(C=C2C(=C1)C3C(CO2)OC4=C(C3=O)C=CC5=C4CC(O5)C(=C)CO[C@H]6[C@@H]([C@H]([C@@H]([C@H](O6)CO[C@H]7[C@@H]([C@H]([C@H](CO7)O)O)O)O)O)O)OC

> <PUBCHEM_CACTVS_TPSA>
222

> <PUBCHEM_MONOISOTOPIC_WEIGHT>
704.231635

> <PUBCHEM_TOTAL_CHARGE>
0

> <PUBCHEM_HEAVY_ATOM_COUNT>
50

> <PUBCHEM_ATOM_DEF_STEREO_COUNT>
9

> <PUBCHEM_ATOM_UDEF_STEREO_COUNT>
3

> <PUBCHEM_BOND_DEF_STEREO_COUNT>
0

> <PUBCHEM_BOND_UDEF_STEREO_COUNT>
0

> <PUBCHEM_ISOTOPIC_ATOM_COUNT>
0

> <PUBCHEM_COMPONENT_COUNT>
1

> <PUBCHEM_CACTVS_TAUTO_COUNT>
-1

> <PUBCHEM_COORDINATE_TYPE>
1
5
255

> <PUBCHEM_BONDANNOTATIONS>
34  11  5
36  12  6
39  14  6
17  24  5
22  30  3
23  32  3
25  28  8
25  35  8
26  37  3
28  29  8
29  41  8
21  3  5
31  40  8
31  44  8
35  43  8
33  4  6
40  45  8
41  43  8
44  46  8
45  48  8
46  48  8
18  6  6
19  7  5
20  9  6

$$$$
44237176
  -OEChem-04052116542D

 54 56  0     1  0  0  0  0  0999 V2000
    8.0622   -1.5950    0.0000 I   0  0  0  0  0  0  0  0  0  0  0  0
    4.5981   -1.5950    0.0000 I   0  0  0  0  0  0  0  0  0  0  0  0
    8.0622    0.4050    0.0000 I   0  0  0  0  0  0  0  0  0  0  0  0
    6.3301    3.4050    0.0000 I   0  0  0  0  0  0  0  0  0  0  0  0
    4.5981   -2.5950    0.0000 O   0  0  0  0  0  0  0  0  0  0  0  0
    4.5981   -5.5950    0.0000 O   0  0  0  0  0  0  0  0  0  0  0  0
    6.3301   -2.5950    0.0000 O   0  0  0  0  0  0  0  0  0  0  0  0
    2.8660   -4.5950    0.0000 O   0  0  0  0  0  0  0  0  0  0  0  0
    6.3301   -4.5950    0.0000 O   0  0  0  0  0  0  0  0  0  0  0  0
    2.0000   -3.0950    0.0000 O   0  5  0  0  0  0  0  0  0  0  0  0
    2.8660   -1.5950    0.0000 O   0  0  0  0  0  0  0  0  0  0  0  0
    6.3301    1.4050    0.0000 O   0  0  0  0  0  0  0  0  0  0  0  0
    8.9282    5.9050    0.0000 O   0  5  0  0  0  0  0  0  0  0  0  0
    8.0622    4.4050    0.0000 O   0  0  0  0  0  0  0  0  0  0  0  0
   10.6603    4.9050    0.0000 N   0  3  0  0  0  0  0  0  0  0  0  0
    4.5981   -4.5950    0.0000 C   0  0  1  0  0  0  0  0  0  0  0  0
    3.7320   -4.0950    0.0000 C   0  0  1  0  0  0  0  0  0  0  0  0
    5.4641   -4.0950    0.0000 C   0  0  2  0  0  0  0  0  0  0  0  0
    3.7320   -3.0950    0.0000 C   0  0  1  0  0  0  0  0  0  0  0  0
    5.4641   -3.0950    0.0000 C   0  0  3  0  0  0  0  0  0  0  0  0
    2.8660   -2.5950    0.0000 C   0  0  0  0  0  0  0  0  0  0  0  0
    6.3301   -1.5950    0.0000 C   0  0  0  0  0  0  0  0  0  0  0  0
    7.1962   -1.0950    0.0000 C   0  0  0  0  0  0  0  0  0  0  0  0
    5.4641   -1.0950    0.0000 C   0  0  0  0  0  0  0  0  0  0  0  0
    9.7942    3.4050    0.0000 C   0  0  0  0  0  0  0  0  0  0  0  0
    9.7942    4.4050    0.0000 C   0  0  1  0  0  0  0  0  0  0  0  0
    8.9282    2.9050    0.0000 C   0  0  0  0  0  0  0  0  0  0  0  0
    7.1962   -0.0950    0.0000 C   0  0  0  0  0  0  0  0  0  0  0  0
    5.4641   -0.0950    0.0000 C   0  0  0  0  0  0  0  0  0  0  0  0
    6.3301    0.4050    0.0000 C   0  0  0  0  0  0  0  0  0  0  0  0
    8.0622    3.4050    0.0000 C   0  0  0  0  0  0  0  0  0  0  0  0
    8.9282    1.9050    0.0000 C   0  0  0  0  0  0  0  0  0  0  0  0
    7.1962    1.9050    0.0000 C   0  0  0  0  0  0  0  0  0  0  0  0
    8.0622    1.4050    0.0000 C   0  0  0  0  0  0  0  0  0  0  0  0
    7.1962    2.9050    0.0000 C   0  0  0  0  0  0  0  0  0  0  0  0
    8.9282    4.9050    0.0000 C   0  0  0  0  0  0  0  0  0  0  0  0
    5.1350   -4.9050    0.0000 H   0  0  0  0  0  0  0  0  0  0  0  0
    3.1951   -3.7850    0.0000 H   0  0  0  0  0  0  0  0  0  0  0  0
    6.0010   -3.7850    0.0000 H   0  0  0  0  0  0  0  0  0  0  0  0
    3.7320   -2.4750    0.0000 H   0  0  0  0  0  0  0  0  0  0  0  0
    5.4641   -2.4750    0.0000 H   0  0  0  0  0  0  0  0  0  0  0  0
    4.0611   -5.9050    0.0000 H   0  0  0  0  0  0  0  0  0  0  0  0
    2.8660   -5.2150    0.0000 H   0  0  0  0  0  0  0  0  0  0  0  0
    6.3301   -5.2150    0.0000 H   0  0  0  0  0  0  0  0  0  0  0  0
   10.0063    2.8224    0.0000 H   0  0  0  0  0  0  0  0  0  0  0  0
   10.4048    3.5127    0.0000 H   0  0  0  0  0  0  0  0  0  0  0  0
    9.7942    5.0250    0.0000 H   0  0  0  0  0  0  0  0  0  0  0  0
    7.7331    0.2150    0.0000 H   0  0  0  0  0  0  0  0  0  0  0  0
    4.9272    0.2150    0.0000 H   0  0  0  0  0  0  0  0  0  0  0  0
   11.1972    5.2150    0.0000 H   0  0  0  0  0  0  0  0  0  0  0  0
   10.3503    5.4419    0.0000 H   0  0  0  0  0  0  0  0  0  0  0  0
   10.9703    4.3681    0.0000 H   0  0  0  0  0  0  0  0  0  0  0  0
    8.0622    4.0250    0.0000 H   0  0  0  0  0  0  0  0  0  0  0  0
    9.4651    1.5950    0.0000 H   0  0  0  0  0  0  0  0  0  0  0  0
  1 23  1  0  0  0  0
  2 24  1  0  0  0  0
  3 34  1  0  0  0  0
  4 35  1  0  0  0  0
  5 19  1  0  0  0  0
  5 20  1  0  0  0  0
 16  6  1  1  0  0  0
  6 42  1  0  0  0  0
  7 20  1  0  0  0  0
  7 22  1  0  0  0  0
 17  8  1  6  0  0  0
  8 43  1  0  0  0  0
 18  9  1  6  0  0  0
  9 44  1  0  0  0  0
 10 21  1  0  0  0  0
 11 21  2  0  0  0  0
 12 30  1  0  0  0  0
 12 33  1  0  0  0  0
 13 36  1  0  0  0  0
 14 36  2  0  0  0  0
 26 15  1  1  0  0  0
 15 50  1  0  0  0  0
 15 51  1  0  0  0  0
 15 52  1  0  0  0  0
 16 17  1  0  0  0  0
 16 18  1  0  0  0  0
 16 37  1  0  0  0  0
 17 19  1  0  0  0  0
 17 38  1  0  0  0  0
 18 20  1  0  0  0  0
 18 39  1  0  0  0  0
 19 21  1  1  0  0  0
 19 40  1  0  0  0  0
 20 41  1  0  0  0  0
 22 23  2  0  0  0  0
 22 24  1  0  0  0  0
 23 28  1  0  0  0  0
 24 29  2  0  0  0  0
 25 26  1  0  0  0  0
 25 27  1  0  0  0  0
 25 45  1  0  0  0  0
 25 46  1  0  0  0  0
 26 36  1  0  0  0  0
 26 47  1  0  0  0  0
 27 31  2  0  0  0  0
 27 32  1  0  0  0  0
 28 30  2  0  0  0  0
 28 48  1  0  0  0  0
 29 30  1  0  0  0  0
 29 49  1  0  0  0  0
 31 35  1  0  0  0  0
 31 53  1  0  0  0  0
 32 34  2  0  0  0  0
 32 54  1  0  0  0  0
 33 34  1  0  0  0  0
 33 35  2  0  0  0  0
M  CHG  3  10  -1  13  -1  15   1
M  END
> <PUBCHEM_COMPOUND_CID>
44237176

> <PUBCHEM_COMPOUND_CANONICALIZED>
1

> <PUBCHEM_CACTVS_COMPLEXITY>
748

> <PUBCHEM_CACTVS_HBOND_ACCEPTOR>
10

> <PUBCHEM_CACTVS_HBOND_DONOR>
4

> <PUBCHEM_CACTVS_ROTATABLE_BOND>
6

> <PUBCHEM_CACTVS_SUBSKEYS>
AAADceB6PAAAA4AAAAAAAAAAAAAAAAAAAAA0YIAAAAAAAAABQAAAHgAwCAAADDzzmAcwDoBABgCIAiDSCAICCAAgIAAAiIHGCIgfNjaEsR+ieCCl8BEPqAfa7KzOIQAAAAAAAABCAAAAAAAAAAAAAAAAAA==

> <PUBCHEM_IUPAC_OPENEYE_NAME>
(2S,3S,4S,5R)-6-[4-[4-[(2S)-2-azaniumyl-2-carboxylato-ethyl]-2,6-diiodo-phenoxy]-2,6-diiodo-phenoxy]-3,4,5-trihydroxy-tetrahydropyran-2-carboxylate

> <PUBCHEM_IUPAC_CAS_NAME>
(2S,3S,4S,5R)-6-[4-[4-[(2S)-2-ammonio-2-carboxylatoethyl]-2,6-diiodophenoxy]-2,6-diiodophenoxy]-3,4,5-trihydroxy-2-oxanecarboxylate

> <PUBCHEM_IUPAC_NAME_MARKUP>
(2<I>S</I>,3<I>S</I>,4<I>S</I>,5<I>R</I>)-6-[4-[4-[(2<I>S</I>)-2-azaniumyl-2-carboxylatoethyl]-2,6-diiodophenoxy]-2,6-diiodophenoxy]-3,4,5-trihydroxyoxane-2-carboxylate

> <PUBCHEM_IUPAC_NAME>
(2S,3S,4S,5R)-6-[4-[4-[(2S)-2-azaniumyl-2-carboxylatoethyl]-2,6-diiodophenoxy]-2,6-diiodophenoxy]-3,4,5-trihydroxyoxane-2-carboxylate

> <PUBCHEM_IUPAC_SYSTEMATIC_NAME>
(2S,3S,4S,5R)-6-[4-[4-[(2S)-2-azaniumyl-3-oxidanidyl-3-oxidanylidene-propyl]-2,6-bis(iodanyl)phenoxy]-2,6-bis(iodanyl)phenoxy]-3,4,5-tris(oxidanyl)oxane-2-carboxylate

> <PUBCHEM_IUPAC_TRADITIONAL_NAME>
(2S,3S,4S,5R)-6-[4-[4-[(2S)-2-ammonio-2-carboxylato-ethyl]-2,6-diiodo-phenoxy]-2,6-diiodo-phenoxy]-3,4,5-trihydroxy-tetrahydropyran-2-carboxylate

> <PUBCHEM_IUPAC_INCHI>
InChI=1S/C21H19I4NO10/c22-8-1-6(3-12(26)19(30)31)2-9(23)16(8)34-7-4-10(24)17(11(25)5-7)35-21-15(29)13(27)14(28)18(36-21)20(32)33/h1-2,4-5,12-15,18,21,27-29H,3,26H2,(H,30,31)(H,32,33)/p-1/t12-,13-,14-,15+,18-,21?/m0/s1

> <PUBCHEM_IUPAC_INCHIKEY>
RGHRJBIKIYUHEV-SGPDEFQSSA-M

> <PUBCHEM_XLOGP3_AA>
2.1

> <PUBCHEM_EXACT_MASS>
951.711

> <PUBCHEM_MOLECULAR_FORMULA>
C21H18I4NO10-

> <PUBCHEM_MOLECULAR_WEIGHT>
952

> <PUBCHEM_OPENEYE_CAN_SMILES>
C1=C(C=C(C(=C1I)OC2=CC(=C(C(=C2)I)OC3C(C(C(C(O3)C(=O)[O-])O)O)O)I)I)CC(C(=O)[O-])[NH3+]

> <PUBCHEM_OPENEYE_ISO_SMILES>
C1=C(C=C(C(=C1I)OC2=CC(=C(C(=C2)I)OC3[C@@H]([C@H]([C@@H]([C@H](O3)C(=O)[O-])O)O)O)I)I)C[C@@H](C(=O)[O-])[NH3+]

> <PUBCHEM_CACTVS_TPSA>
196

> <PUBCHEM_MONOISOTOPIC_WEIGHT>
951.711

> <PUBCHEM_TOTAL_CHARGE>
-1

> <PUBCHEM_HEAVY_ATOM_COUNT>
36

> <PUBCHEM_ATOM_DEF_STEREO_COUNT>
5

> <PUBCHEM_ATOM_UDEF_STEREO_COUNT>
1

> <PUBCHEM_BOND_DEF_STEREO_COUNT>
0

> <PUBCHEM_BOND_UDEF_STEREO_COUNT>
0

> <PUBCHEM_ISOTOPIC_ATOM_COUNT>
0

> <PUBCHEM_COMPONENT_COUNT>
1

> <PUBCHEM_CACTVS_TAUTO_COUNT>
-1

> <PUBCHEM_COORDINATE_TYPE>
1
5
255

> <PUBCHEM_BONDANNOTATIONS>
26  15  5
19  21  5
22  23  8
22  24  8
23  28  8
24  29  8
27  31  8
27  32  8
28  30  8
29  30  8
31  35  8
32  34  8
33  34  8
33  35  8
16  6  5
20  7  3
17  8  6
18  9  6

$$$$
23641781
  -OEChem-04052116542D

 40 42  0     1  0  0  0  0  0999 V2000
    2.6691   -0.7483    0.0000 S   0  0  0  0  0  0  0  0  0  0  0  0
    4.4487    3.3450    0.0000 O   0  0  0  0  0  0  0  0  0  0  0  0
    6.1808   -2.6550    0.0000 N   0  0  0  0  0  0  0  0  0  0  0  0
    4.4487   -0.6550    0.0000 C   0  0  3  0  0  0  0  0  0  0  0  0
    5.3147   -1.1550    0.0000 C   0  0  0  0  0  0  0  0  0  0  0  0
    4.4487    0.3450    0.0000 C   0  0  0  0  0  0  0  0  0  0  0  0
    5.3147    0.8450    0.0000 C   0  0  0  0  0  0  0  0  0  0  0  0
    3.5827   -1.1550    0.0000 C   0  0  0  0  0  0  0  0  0  0  0  0
    5.3147   -2.1550    0.0000 C   0  0  0  0  0  0  0  0  0  0  0  0
    5.3147    1.8450    0.0000 C   0  0  0  0  0  0  0  0  0  0  0  0
    3.5827    0.8450    0.0000 C   0  0  0  0  0  0  0  0  0  0  0  0
    4.4487    2.3450    0.0000 C   0  0  0  0  0  0  0  0  0  0  0  0
    6.2087    0.3103    0.0000 C   0  0  0  0  0  0  0  0  0  0  0  0
    3.4782   -2.1495    0.0000 C   0  0  0  0  0  0  0  0  0  0  0  0
    3.5827    1.8450    0.0000 C   0  0  0  0  0  0  0  0  0  0  0  0
    6.2087    2.3797    0.0000 C   0  0  0  0  0  0  0  0  0  0  0  0
    7.1147    0.8242    0.0000 C   0  0  0  0  0  0  0  0  0  0  0  0
    2.5000   -2.3574    0.0000 C   0  0  0  0  0  0  0  0  0  0  0  0
    7.1147    1.8658    0.0000 C   0  0  0  0  0  0  0  0  0  0  0  0
    2.0000   -1.4914    0.0000 C   0  0  0  0  0  0  0  0  0  0  0  0
    6.1808   -3.6550    0.0000 C   0  0  0  0  0  0  0  0  0  0  0  0
    4.9856   -0.3450    0.0000 H   0  0  0  0  0  0  0  0  0  0  0  0
    5.9253   -1.2627    0.0000 H   0  0  0  0  0  0  0  0  0  0  0  0
    5.5268   -0.5724    0.0000 H   0  0  0  0  0  0  0  0  0  0  0  0
    4.7042   -2.0473    0.0000 H   0  0  0  0  0  0  0  0  0  0  0  0
    5.1027   -2.7376    0.0000 H   0  0  0  0  0  0  0  0  0  0  0  0
    3.0457    0.5350    0.0000 H   0  0  0  0  0  0  0  0  0  0  0  0
    6.2015   -0.3096    0.0000 H   0  0  0  0  0  0  0  0  0  0  0  0
    3.9389   -2.5644    0.0000 H   0  0  0  0  0  0  0  0  0  0  0  0
    3.0457    2.1550    0.0000 H   0  0  0  0  0  0  0  0  0  0  0  0
    6.7177   -2.3450    0.0000 H   0  0  0  0  0  0  0  0  0  0  0  0
    6.2015    2.9996    0.0000 H   0  0  0  0  0  0  0  0  0  0  0  0
    7.6505    0.5121    0.0000 H   0  0  0  0  0  0  0  0  0  0  0  0
    2.2478   -2.9238    0.0000 H   0  0  0  0  0  0  0  0  0  0  0  0
    7.6505    2.1779    0.0000 H   0  0  0  0  0  0  0  0  0  0  0  0
    1.3834   -1.4266    0.0000 H   0  0  0  0  0  0  0  0  0  0  0  0
    5.5608   -3.6550    0.0000 H   0  0  0  0  0  0  0  0  0  0  0  0
    6.1808   -4.2750    0.0000 H   0  0  0  0  0  0  0  0  0  0  0  0
    6.8008   -3.6550    0.0000 H   0  0  0  0  0  0  0  0  0  0  0  0
    3.9118    3.6550    0.0000 H   0  0  0  0  0  0  0  0  0  0  0  0
  1  8  1  0  0  0  0
  1 20  1  0  0  0  0
  2 12  1  0  0  0  0
  2 40  1  0  0  0  0
  3  9  1  0  0  0  0
  3 21  1  0  0  0  0
  3 31  1  0  0  0  0
  4  5  1  0  0  0  0
  4  6  1  0  0  0  0
  4  8  1  0  0  0  0
  4 22  1  0  0  0  0
  5  9  1  0  0  0  0
  5 23  1  0  0  0  0
  5 24  1  0  0  0  0
  6  7  1  0  0  0  0
  6 11  2  0  0  0  0
  7 10  1  0  0  0  0
  7 13  2  0  0  0  0
  8 14  2  0  0  0  0
  9 25  1  0  0  0  0
  9 26  1  0  0  0  0
 10 12  1  0  0  0  0
 10 16  2  0  0  0  0
 11 15  1  0  0  0  0
 11 27  1  0  0  0  0
 12 15  2  0  0  0  0
 13 17  1  0  0  0  0
 13 28  1  0  0  0  0
 14 18  1  0  0  0  0
 14 29  1  0  0  0  0
 15 30  1  0  0  0  0
 16 19  1  0  0  0  0
 16 32  1  0  0  0  0
 17 19  2  0  0  0  0
 17 33  1  0  0  0  0
 18 20  2  0  0  0  0
 18 34  1  0  0  0  0
 19 35  1  0  0  0  0
 20 36  1  0  0  0  0
 21 37  1  0  0  0  0
 21 38  1  0  0  0  0
 21 39  1  0  0  0  0
M  END
> <PUBCHEM_COMPOUND_CID>
23641781

> <PUBCHEM_COMPOUND_CANONICALIZED>
1

> <PUBCHEM_CACTVS_COMPLEXITY>
324

> <PUBCHEM_CACTVS_HBOND_ACCEPTOR>
3

> <PUBCHEM_CACTVS_HBOND_DONOR>
2

> <PUBCHEM_CACTVS_ROTATABLE_BOND>
5

> <PUBCHEM_CACTVS_SUBSKEYS>
AAADceB6IABAAAAAAAAAAAAAAAAAASAAAAAwYAAAAAAAAADB1AAAHgQQCAAADQTF2ASyB8LAAgiEAiBCAAADAIAgKBBIiJgOCIgIJiKikRKEcAAk0BEomAeQwPAOoAADAAAYAABAAAYAADAAAAAAAAAAAA==

> <PUBCHEM_IUPAC_OPENEYE_NAME>
4-[3-(methylamino)-1-(2-thienyl)propyl]naphthalen-1-ol

> <PUBCHEM_IUPAC_CAS_NAME>
4-[3-(methylamino)-1-thiophen-2-ylpropyl]-1-naphthalenol

> <PUBCHEM_IUPAC_NAME_MARKUP>
4-[3-(methylamino)-1-thiophen-2-ylpropyl]naphthalen-1-ol

> <PUBCHEM_IUPAC_NAME>
4-[3-(methylamino)-1-thiophen-2-ylpropyl]naphthalen-1-ol

> <PUBCHEM_IUPAC_SYSTEMATIC_NAME>
4-[3-(methylamino)-1-thiophen-2-yl-propyl]naphthalen-1-ol

> <PUBCHEM_IUPAC_TRADITIONAL_NAME>
4-[3-(methylamino)-1-(2-thienyl)propyl]-1-naphthol

> <PUBCHEM_IUPAC_INCHI>
InChI=1S/C18H19NOS/c1-19-11-10-16(18-7-4-12-21-18)14-8-9-17(20)15-6-3-2-5-13(14)15/h2-9,12,16,19-20H,10-11H2,1H3

> <PUBCHEM_IUPAC_INCHIKEY>
OJXMJLCWKLPCHB-UHFFFAOYSA-N

> <PUBCHEM_XLOGP3_AA>
4.2

> <PUBCHEM_EXACT_MASS>
297.118735

> <PUBCHEM_MOLECULAR_FORMULA>
C18H19NOS

> <PUBCHEM_MOLECULAR_WEIGHT>
297.4

> <PUBCHEM_OPENEYE_CAN_SMILES>
CNCCC(C1=CC=C(C2=CC=CC=C21)O)C3=CC=CS3

> <PUBCHEM_OPENEYE_ISO_SMILES>
CNCCC(C1=CC=C(C2=CC=CC=C21)O)C3=CC=CS3

> <PUBCHEM_CACTVS_TPSA>
60.5

> <PUBCHEM_MONOISOTOPIC_WEIGHT>
297.118735

> <PUBCHEM_TOTAL_CHARGE>
0

> <PUBCHEM_HEAVY_ATOM_COUNT>
21

> <PUBCHEM_ATOM_DEF_STEREO_COUNT>
0

> <PUBCHEM_ATOM_UDEF_STEREO_COUNT>
1

> <PUBCHEM_BOND_DEF_STEREO_COUNT>
0

> <PUBCHEM_BOND_UDEF_STEREO_COUNT>
0

> <PUBCHEM_ISOTOPIC_ATOM_COUNT>
0

> <PUBCHEM_COMPONENT_COUNT>
1

> <PUBCHEM_CACTVS_TAUTO_COUNT>
-1

> <PUBCHEM_COORDINATE_TYPE>
1
5
255

> <PUBCHEM_BONDANNOTATIONS>
1  20  8
1  8  8
10  12  8
10  16  8
11  15  8
12  15  8
13  17  8
14  18  8
16  19  8
17  19  8
18  20  8
4  5  3
6  11  8
6  7  8
7  10  8
7  13  8
8  14  8

$$$$
16133892
  -OEChem-04052116542D

174184  0     1  0  0  0  0  0999 V2000
   12.9292    1.0000    0.0000 O   0  0  0  0  0  0  0  0  0  0  0  0
   12.9292   -2.0000    0.0000 O   0  0  0  0  0  0  0  0  0  0  0  0
   11.1972   -1.0000    0.0000 O   0  0  0  0  0  0  0  0  0  0  0  0
   14.6613   -1.0000    0.0000 O   0  0  0  0  0  0  0  0  0  0  0  0
   14.6613    1.0000    0.0000 O   0  0  0  0  0  0  0  0  0  0  0  0
   11.1972    2.0000    0.0000 O   0  0  0  0  0  0  0  0  0  0  0  0
   11.1972   -2.0000    0.0000 O   0  0  0  0  0  0  0  0  0  0  0  0
   10.3312    0.5000    0.0000 O   0  0  0  0  0  0  0  0  0  0  0  0
   15.5273    0.5000    0.0000 O   0  0  0  0  0  0  0  0  0  0  0  0
   13.7953    2.5000    0.0000 O   0  0  0  0  0  0  0  0  0  0  0  0
    9.4651    2.0000    0.0000 O   0  0  0  0  0  0  0  0  0  0  0  0
   10.3312   -5.5000    0.0000 O   0  0  0  0  0  0  0  0  0  0  0  0
    6.8671   -0.5000    0.0000 O   0  0  0  0  0  0  0  0  0  0  0  0
   17.2594   -3.5000    0.0000 O   0  0  0  0  0  0  0  0  0  0  0  0
   13.7953   -5.5000    0.0000 O   0  0  0  0  0  0  0  0  0  0  0  0
    8.5991   -3.5000    0.0000 O   0  0  0  0  0  0  0  0  0  0  0  0
   18.9914   -0.5000    0.0000 O   0  0  0  0  0  0  0  0  0  0  0  0
   18.1254    2.0000    0.0000 O   0  0  0  0  0  0  0  0  0  0  0  0
   12.0632   -6.5000    0.0000 O   0  0  0  0  0  0  0  0  0  0  0  0
    6.8671   -2.5000    0.0000 O   0  0  0  0  0  0  0  0  0  0  0  0
   16.3933    5.0000    0.0000 O   0  0  0  0  0  0  0  0  0  0  0  0
   18.9914   -2.5000    0.0000 O   0  0  0  0  0  0  0  0  0  0  0  0
   18.1254    4.0000    0.0000 O   0  0  0  0  0  0  0  0  0  0  0  0
   12.0632    5.5000    0.0000 O   0  0  0  0  0  0  0  0  0  0  0  0
    8.5991    5.5000    0.0000 O   0  0  0  0  0  0  0  0  0  0  0  0
   10.3312    6.5000    0.0000 O   0  0  0  0  0  0  0  0  0  0  0  0
   11.1972   -7.0000    0.0000 O   0  0  0  0  0  0  0  0  0  0  0  0
    6.0010   -2.0000    0.0000 O   0  0  0  0  0  0  0  0  0  0  0  0
   18.9914   -3.5000    0.0000 O   0  0  0  0  0  0  0  0  0  0  0  0
   18.9914    3.5000    0.0000 O   0  0  0  0  0  0  0  0  0  0  0  0
   11.1972    7.0000    0.0000 O   0  0  0  0  0  0  0  0  0  0  0  0
    8.5991   -9.5000    0.0000 O   0  0  0  0  0  0  0  0  0  0  0  0
    6.8671   -6.5000    0.0000 O   0  0  0  0  0  0  0  0  0  0  0  0
    2.5369   -1.0000    0.0000 O   0  0  0  0  0  0  0  0  0  0  0  0
    4.2690    2.0000    0.0000 O   0  0  0  0  0  0  0  0  0  0  0  0
   19.8574   -7.0000    0.0000 O   0  0  0  0  0  0  0  0  0  0  0  0
   16.3933   -7.0000    0.0000 O   0  0  0  0  0  0  0  0  0  0  0  0
    6.8671   -8.5000    0.0000 O   0  0  0  0  0  0  0  0  0  0  0  0
    2.5369    1.0000    0.0000 O   0  0  0  0  0  0  0  0  0  0  0  0
   22.4555    2.5000    0.0000 O   0  0  0  0  0  0  0  0  0  0  0  0
   20.7235   -0.5000    0.0000 O   0  0  0  0  0  0  0  0  0  0  0  0
   18.1254   -8.0000    0.0000 O   0  0  0  0  0  0  0  0  0  0  0  0
   22.4555    0.5000    0.0000 O   0  0  0  0  0  0  0  0  0  0  0  0
   13.7953    9.5000    0.0000 O   0  0  0  0  0  0  0  0  0  0  0  0
   15.5273    6.5000    0.0000 O   0  0  0  0  0  0  0  0  0  0  0  0
   15.5273    8.5000    0.0000 O   0  0  0  0  0  0  0  0  0  0  0  0
   12.9292   -1.0000    0.0000 C   0  0  2  0  0  0  0  0  0  0  0  0
   12.0632   -0.5000    0.0000 C   0  0  2  0  0  0  0  0  0  0  0  0
   13.7953   -0.5000    0.0000 C   0  0  1  0  0  0  0  0  0  0  0  0
   12.0632    0.5000    0.0000 C   0  0  2  0  0  0  0  0  0  0  0  0
   13.7953    0.5000    0.0000 C   0  0  2  0  0  0  0  0  0  0  0  0
   11.1972    1.0000    0.0000 C   0  0  0  0  0  0  0  0  0  0  0  0
   12.0632   -2.5000    0.0000 C   0  0  0  0  0  0  0  0  0  0  0  0
   10.3312   -0.5000    0.0000 C   0  0  0  0  0  0  0  0  0  0  0  0
   15.5273   -0.5000    0.0000 C   0  0  0  0  0  0  0  0  0  0  0  0
   14.6613    2.0000    0.0000 C   0  0  0  0  0  0  0  0  0  0  0  0
   12.0632   -3.5000    0.0000 C   0  0  0  0  0  0  0  0  0  0  0  0
    9.4651   -1.0000    0.0000 C   0  0  0  0  0  0  0  0  0  0  0  0
   16.3933   -1.0000    0.0000 C   0  0  0  0  0  0  0  0  0  0  0  0
   10.3312    2.5000    0.0000 C   0  0  0  0  0  0  0  0  0  0  0  0
   15.5273    2.5000    0.0000 C   0  0  0  0  0  0  0  0  0  0  0  0
   10.3312    3.5000    0.0000 C   0  0  0  0  0  0  0  0  0  0  0  0
   11.1972   -4.0000    0.0000 C   0  0  0  0  0  0  0  0  0  0  0  0
    8.5991   -0.5000    0.0000 C   0  0  0  0  0  0  0  0  0  0  0  0
   12.9292   -4.0000    0.0000 C   0  0  0  0  0  0  0  0  0  0  0  0
    9.4651   -2.0000    0.0000 C   0  0  0  0  0  0  0  0  0  0  0  0
   16.3933   -2.0000    0.0000 C   0  0  0  0  0  0  0  0  0  0  0  0
   17.2594   -0.5000    0.0000 C   0  0  0  0  0  0  0  0  0  0  0  0
   16.3933    2.0000    0.0000 C   0  0  0  0  0  0  0  0  0  0  0  0
   15.5273    3.5000    0.0000 C   0  0  0  0  0  0  0  0  0  0  0  0
   11.1972   -5.0000    0.0000 C   0  0  0  0  0  0  0  0  0  0  0  0
    7.7331   -1.0000    0.0000 C   0  0  0  0  0  0  0  0  0  0  0  0
   12.9292   -5.0000    0.0000 C   0  0  0  0  0  0  0  0  0  0  0  0
    8.5991   -2.5000    0.0000 C   0  0  0  0  0  0  0  0  0  0  0  0
   17.2594   -2.5000    0.0000 C   0  0  0  0  0  0  0  0  0  0  0  0
   18.1254   -1.0000    0.0000 C   0  0  0  0  0  0  0  0  0  0  0  0
   11.1972    4.0000    0.0000 C   0  0  0  0  0  0  0  0  0  0  0  0
    9.4651    4.0000    0.0000 C   0  0  0  0  0  0  0  0  0  0  0  0
   12.0632   -5.5000    0.0000 C   0  0  0  0  0  0  0  0  0  0  0  0
    7.7331   -2.0000    0.0000 C   0  0  0  0  0  0  0  0  0  0  0  0
   17.2594    2.5000    0.0000 C   0  0  0  0  0  0  0  0  0  0  0  0
   16.3933    4.0000    0.0000 C   0  0  0  0  0  0  0  0  0  0  0  0
   18.1254   -2.0000    0.0000 C   0  0  0  0  0  0  0  0  0  0  0  0
   17.2594    3.5000    0.0000 C   0  0  0  0  0  0  0  0  0  0  0  0
   11.1972    5.0000    0.0000 C   0  0  0  0  0  0  0  0  0  0  0  0
    9.4651    5.0000    0.0000 C   0  0  0  0  0  0  0  0  0  0  0  0
   10.3312    5.5000    0.0000 C   0  0  0  0  0  0  0  0  0  0  0  0
   10.3312   -6.5000    0.0000 C   0  0  0  0  0  0  0  0  0  0  0  0
    6.0010   -1.0000    0.0000 C   0  0  0  0  0  0  0  0  0  0  0  0
   18.1254   -4.0000    0.0000 C   0  0  0  0  0  0  0  0  0  0  0  0
   18.9914    2.5000    0.0000 C   0  0  0  0  0  0  0  0  0  0  0  0
    9.4651   -7.0000    0.0000 C   0  0  0  0  0  0  0  0  0  0  0  0
    5.1350   -0.5000    0.0000 C   0  0  0  0  0  0  0  0  0  0  0  0
   12.0632    6.5000    0.0000 C   0  0  0  0  0  0  0  0  0  0  0  0
   18.1254   -5.0000    0.0000 C   0  0  0  0  0  0  0  0  0  0  0  0
   19.8574    2.0000    0.0000 C   0  0  0  0  0  0  0  0  0  0  0  0
   12.9292    7.0000    0.0000 C   0  0  0  0  0  0  0  0  0  0  0  0
    8.5991   -6.5000    0.0000 C   0  0  0  0  0  0  0  0  0  0  0  0
    9.4651   -8.0000    0.0000 C   0  0  0  0  0  0  0  0  0  0  0  0
    5.1350    0.5000    0.0000 C   0  0  0  0  0  0  0  0  0  0  0  0
    4.2690   -1.0000    0.0000 C   0  0  0  0  0  0  0  0  0  0  0  0
   17.2594   -5.5000    0.0000 C   0  0  0  0  0  0  0  0  0  0  0  0
   18.9914   -5.5000    0.0000 C   0  0  0  0  0  0  0  0  0  0  0  0
   19.8574    1.0000    0.0000 C   0  0  0  0  0  0  0  0  0  0  0  0
   20.7235    2.5000    0.0000 C   0  0  0  0  0  0  0  0  0  0  0  0
    8.5991   -8.5000    0.0000 C   0  0  0  0  0  0  0  0  0  0  0  0
    7.7331   -7.0000    0.0000 C   0  0  0  0  0  0  0  0  0  0  0  0
    3.4030   -0.5000    0.0000 C   0  0  0  0  0  0  0  0  0  0  0  0
    4.2690    1.0000    0.0000 C   0  0  0  0  0  0  0  0  0  0  0  0
   18.9914   -6.5000    0.0000 C   0  0  0  0  0  0  0  0  0  0  0  0
   17.2594   -6.5000    0.0000 C   0  0  0  0  0  0  0  0  0  0  0  0
   13.7953    6.5000    0.0000 C   0  0  0  0  0  0  0  0  0  0  0  0
   12.9292    8.0000    0.0000 C   0  0  0  0  0  0  0  0  0  0  0  0
    7.7331   -8.0000    0.0000 C   0  0  0  0  0  0  0  0  0  0  0  0
    3.4030    0.5000    0.0000 C   0  0  0  0  0  0  0  0  0  0  0  0
   21.5895    2.0000    0.0000 C   0  0  0  0  0  0  0  0  0  0  0  0
   20.7235    0.5000    0.0000 C   0  0  0  0  0  0  0  0  0  0  0  0
   18.1254   -7.0000    0.0000 C   0  0  0  0  0  0  0  0  0  0  0  0
   21.5895    1.0000    0.0000 C   0  0  0  0  0  0  0  0  0  0  0  0
   13.7953    8.5000    0.0000 C   0  0  0  0  0  0  0  0  0  0  0  0
   14.6613    7.0000    0.0000 C   0  0  0  0  0  0  0  0  0  0  0  0
   14.6613    8.0000    0.0000 C   0  0  0  0  0  0  0  0  0  0  0  0
   12.3923   -1.3100    0.0000 H   0  0  0  0  0  0  0  0  0  0  0  0
   11.5263   -0.1900    0.0000 H   0  0  0  0  0  0  0  0  0  0  0  0
   13.7953   -1.1200    0.0000 H   0  0  0  0  0  0  0  0  0  0  0  0
   12.0632    1.1200    0.0000 H   0  0  0  0  0  0  0  0  0  0  0  0
   14.3322    0.1900    0.0000 H   0  0  0  0  0  0  0  0  0  0  0  0
   10.5866    1.1077    0.0000 H   0  0  0  0  0  0  0  0  0  0  0  0
   10.9851    0.4174    0.0000 H   0  0  0  0  0  0  0  0  0  0  0  0
   10.6603   -3.6900    0.0000 H   0  0  0  0  0  0  0  0  0  0  0  0
    8.5991    0.1200    0.0000 H   0  0  0  0  0  0  0  0  0  0  0  0
   13.4662   -3.6900    0.0000 H   0  0  0  0  0  0  0  0  0  0  0  0
   10.0021   -2.3100    0.0000 H   0  0  0  0  0  0  0  0  0  0  0  0
   15.8564   -2.3100    0.0000 H   0  0  0  0  0  0  0  0  0  0  0  0
   17.2594    0.1200    0.0000 H   0  0  0  0  0  0  0  0  0  0  0  0
   16.3933    1.3800    0.0000 H   0  0  0  0  0  0  0  0  0  0  0  0
   14.9904    3.8100    0.0000 H   0  0  0  0  0  0  0  0  0  0  0  0
   11.7341    3.6900    0.0000 H   0  0  0  0  0  0  0  0  0  0  0  0
    8.9282    3.6900    0.0000 H   0  0  0  0  0  0  0  0  0  0  0  0
   14.3322   -5.1900    0.0000 H   0  0  0  0  0  0  0  0  0  0  0  0
    8.0622   -3.8100    0.0000 H   0  0  0  0  0  0  0  0  0  0  0  0
   19.5284   -0.8100    0.0000 H   0  0  0  0  0  0  0  0  0  0  0  0
   12.6002   -6.8100    0.0000 H   0  0  0  0  0  0  0  0  0  0  0  0
    6.8671   -3.1200    0.0000 H   0  0  0  0  0  0  0  0  0  0  0  0
   15.8564    5.3100    0.0000 H   0  0  0  0  0  0  0  0  0  0  0  0
   19.5284   -2.1900    0.0000 H   0  0  0  0  0  0  0  0  0  0  0  0
   18.1254    4.6200    0.0000 H   0  0  0  0  0  0  0  0  0  0  0  0
    8.0622    5.1900    0.0000 H   0  0  0  0  0  0  0  0  0  0  0  0
    9.7942    6.8100    0.0000 H   0  0  0  0  0  0  0  0  0  0  0  0
    8.5991   -5.8800    0.0000 H   0  0  0  0  0  0  0  0  0  0  0  0
   10.0021   -8.3100    0.0000 H   0  0  0  0  0  0  0  0  0  0  0  0
    5.6720    0.8100    0.0000 H   0  0  0  0  0  0  0  0  0  0  0  0
    4.2690   -1.6200    0.0000 H   0  0  0  0  0  0  0  0  0  0  0  0
   16.7224   -5.1900    0.0000 H   0  0  0  0  0  0  0  0  0  0  0  0
   19.5284   -5.1900    0.0000 H   0  0  0  0  0  0  0  0  0  0  0  0
   19.3205    0.6900    0.0000 H   0  0  0  0  0  0  0  0  0  0  0  0
   20.7235    3.1200    0.0000 H   0  0  0  0  0  0  0  0  0  0  0  0
   13.7953    5.8800    0.0000 H   0  0  0  0  0  0  0  0  0  0  0  0
   12.3923    8.3100    0.0000 H   0  0  0  0  0  0  0  0  0  0  0  0
    9.1360   -9.8100    0.0000 H   0  0  0  0  0  0  0  0  0  0  0  0
    6.3301   -6.8100    0.0000 H   0  0  0  0  0  0  0  0  0  0  0  0
    2.5369   -1.6200    0.0000 H   0  0  0  0  0  0  0  0  0  0  0  0
    3.7320    2.3100    0.0000 H   0  0  0  0  0  0  0  0  0  0  0  0
   20.3944   -6.6900    0.0000 H   0  0  0  0  0  0  0  0  0  0  0  0
   16.3933   -7.6200    0.0000 H   0  0  0  0  0  0  0  0  0  0  0  0
    6.8671   -9.1200    0.0000 H   0  0  0  0  0  0  0  0  0  0  0  0
    2.0000    0.6900    0.0000 H   0  0  0  0  0  0  0  0  0  0  0  0
   22.4555    3.1200    0.0000 H   0  0  0  0  0  0  0  0  0  0  0  0
   21.2604   -0.8100    0.0000 H   0  0  0  0  0  0  0  0  0  0  0  0
   18.6623   -8.3100    0.0000 H   0  0  0  0  0  0  0  0  0  0  0  0
   22.9925    0.8100    0.0000 H   0  0  0  0  0  0  0  0  0  0  0  0
   13.2583    9.8100    0.0000 H   0  0  0  0  0  0  0  0  0  0  0  0
   16.0643    6.8100    0.0000 H   0  0  0  0  0  0  0  0  0  0  0  0
   15.5273    9.1200    0.0000 H   0  0  0  0  0  0  0  0  0  0  0  0
  1 50  1  0  0  0  0
  1 51  1  0  0  0  0
 47  2  1  6  0  0  0
  2 53  1  0  0  0  0
 48  3  1  1  0  0  0
  3 54  1  0  0  0  0
 49  4  1  1  0  0  0
  4 55  1  0  0  0  0
 51  5  1  6  0  0  0
  5 56  1  0  0  0  0
  6 52  1  0  0  0  0
  6 60  1  0  0  0  0
  7 53  2  0  0  0  0
  8 54  2  0  0  0  0
  9 55  2  0  0  0  0
 10 56  2  0  0  0  0
 11 60  2  0  0  0  0
 12 71  1  0  0  0  0
 12 88  1  0  0  0  0
 13 72  1  0  0  0  0
 13 89  1  0  0  0  0
 14 75  1  0  0  0  0
 14 90  1  0  0  0  0
 15 73  1  0  0  0  0
 15140  1  0  0  0  0
 16 74  1  0  0  0  0
 16141  1  0  0  0  0
 17 76  1  0  0  0  0
 17142  1  0  0  0  0
 18 81  1  0  0  0  0
 18 91  1  0  0  0  0
 19 79  1  0  0  0  0
 19143  1  0  0  0  0
 20 80  1  0  0  0  0
 20144  1  0  0  0  0
 21 82  1  0  0  0  0
 21145  1  0  0  0  0
 22 83  1  0  0  0  0
 22146  1  0  0  0  0
 23 84  1  0  0  0  0
 23147  1  0  0  0  0
 24 85  1  0  0  0  0
 24 94  1  0  0  0  0
 25 86  1  0  0  0  0
 25148  1  0  0  0  0
 26 87  1  0  0  0  0
 26149  1  0  0  0  0
 27 88  2  0  0  0  0
 28 89  2  0  0  0  0
 29 90  2  0  0  0  0
 30 91  2  0  0  0  0
 31 94  2  0  0  0  0
 32106  1  0  0  0  0
 32160  1  0  0  0  0
 33107  1  0  0  0  0
 33161  1  0  0  0  0
 34108  1  0  0  0  0
 34162  1  0  0  0  0
 35109  1  0  0  0  0
 35163  1  0  0  0  0
 36110  1  0  0  0  0
 36164  1  0  0  0  0
 37111  1  0  0  0  0
 37165  1  0  0  0  0
 38114  1  0  0  0  0
 38166  1  0  0  0  0
 39115  1  0  0  0  0
 39167  1  0  0  0  0
 40116  1  0  0  0  0
 40168  1  0  0  0  0
 41117  1  0  0  0  0
 41169  1  0  0  0  0
 42118  1  0  0  0  0
 42170  1  0  0  0  0
 43119  1  0  0  0  0
 43171  1  0  0  0  0
 44120  1  0  0  0  0
 44172  1  0  0  0  0
 45121  1  0  0  0  0
 45173  1  0  0  0  0
 46122  1  0  0  0  0
 46174  1  0  0  0  0
 47 48  1  0  0  0  0
 47 49  1  0  0  0  0
 47123  1  0  0  0  0
 48 50  1  0  0  0  0
 48124  1  0  0  0  0
 49 51  1  0  0  0  0
 49125  1  0  0  0  0
 50 52  1  6  0  0  0
 50126  1  0  0  0  0
 51127  1  0  0  0  0
 52128  1  0  0  0  0
 52129  1  0  0  0  0
 53 57  1  0  0  0  0
 54 58  1  0  0  0  0
 55 59  1  0  0  0  0
 56 61  1  0  0  0  0
 57 63  1  0  0  0  0
 57 65  2  0  0  0  0
 58 64  1  0  0  0  0
 58 66  2  0  0  0  0
 59 67  1  0  0  0  0
 59 68  2  0  0  0  0
 60 62  1  0  0  0  0
 61 69  1  0  0  0  0
 61 70  2  0  0  0  0
 62 77  1  0  0  0  0
 62 78  2  0  0  0  0
 63 71  2  0  0  0  0
 63130  1  0  0  0  0
 64 72  2  0  0  0  0
 64131  1  0  0  0  0
 65 73  1  0  0  0  0
 65132  1  0  0  0  0
 66 74  1  0  0  0  0
 66133  1  0  0  0  0
 67 75  2  0  0  0  0
 67134  1  0  0  0  0
 68 76  1  0  0  0  0
 68135  1  0  0  0  0
 69 81  2  0  0  0  0
 69136  1  0  0  0  0
 70 82  1  0  0  0  0
 70137  1  0  0  0  0
 71 79  1  0  0  0  0
 72 80  1  0  0  0  0
 73 79  2  0  0  0  0
 74 80  2  0  0  0  0
 75 83  1  0  0  0  0
 76 83  2  0  0  0  0
 77 85  2  0  0  0  0
 77138  1  0  0  0  0
 78 86  1  0  0  0  0
 78139  1  0  0  0  0
 81 84  1  0  0  0  0
 82 84  2  0  0  0  0
 85 87  1  0  0  0  0
 86 87  2  0  0  0  0
 88 92  1  0  0  0  0
 89 93  1  0  0  0  0
 90 95  1  0  0  0  0
 91 96  1  0  0  0  0
 92 98  2  0  0  0  0
 92 99  1  0  0  0  0
 93100  2  0  0  0  0
 93101  1  0  0  0  0
 94 97  1  0  0  0  0
 95102  2  0  0  0  0
 95103  1  0  0  0  0
 96104  2  0  0  0  0
 96105  1  0  0  0  0
 97112  2  0  0  0  0
 97113  1  0  0  0  0
 98107  1  0  0  0  0
 98150  1  0  0  0  0
 99106  2  0  0  0  0
 99151  1  0  0  0  0
100109  1  0  0  0  0
100152  1  0  0  0  0
101108  2  0  0  0  0
101153  1  0  0  0  0
102111  1  0  0  0  0
102154  1  0  0  0  0
103110  2  0  0  0  0
103155  1  0  0  0  0
104117  1  0  0  0  0
104156  1  0  0  0  0
105116  2  0  0  0  0
105157  1  0  0  0  0
106114  1  0  0  0  0
107114  2  0  0  0  0
108115  1  0  0  0  0
109115  2  0  0  0  0
110118  1  0  0  0  0
111118  2  0  0  0  0
112121  1  0  0  0  0
112158  1  0  0  0  0
113120  2  0  0  0  0
113159  1  0  0  0  0
116119  1  0  0  0  0
117119  2  0  0  0  0
120122  1  0  0  0  0
121122  2  0  0  0  0
M  END
> <PUBCHEM_COMPOUND_CID>
16133892

> <PUBCHEM_COMPOUND_CANONICALIZED>
1

> <PUBCHEM_CACTVS_COMPLEXITY>
3570

> <PUBCHEM_CACTVS_HBOND_ACCEPTOR>
46

> <PUBCHEM_CACTVS_HBOND_DONOR>
25

> <PUBCHEM_CACTVS_ROTATABLE_BOND>
31

> <PUBCHEM_CACTVS_SUBSKEYS>
AAADcfB8PgAAAAAAAAAAAAAAAAAAAAAAAAA0YMGDAAAAAAABVAAAGgAACAAADBSwmAMwDoAABgCIAiDSCAACCAAkIAAAiAEGiMgdJzKGNRqieyOlwBUPuYfK7DzOIAABCAAAQABAAAIQAACAAAAAAAAAAA==

> <PUBCHEM_IUPAC_OPENEYE_NAME>
[2,3-dihydroxy-5-[[(2S,3S,4R,5S,6R)-3,4,5,6-tetrakis[[3,4-dihydroxy-5-(3,4,5-trihydroxybenzoyl)oxy-benzoyl]oxy]tetrahydropyran-2-yl]methoxycarbonyl]phenyl] 3,4,5-trihydroxybenzoate

> <PUBCHEM_IUPAC_CAS_NAME>
3,4,5-trihydroxybenzoic acid [2,3-dihydroxy-5-[oxo-[[(2S,3S,4R,5S,6R)-3,4,5,6-tetrakis[[3,4-dihydroxy-5-[oxo-(3,4,5-trihydroxyphenyl)methoxy]phenyl]-oxomethoxy]-2-oxanyl]methoxy]methyl]phenyl] ester

> <PUBCHEM_IUPAC_NAME_MARKUP>
[2,3-dihydroxy-5-[[(2<I>S</I>,3<I>S</I>,4<I>R</I>,5<I>S</I>,6<I>R</I>)-3,4,5,6-tetrakis[[3,4-dihydroxy-5-(3,4,5-trihydroxybenzoyl)oxybenzoyl]oxy]oxan-2-yl]methoxycarbonyl]phenyl] 3,4,5-trihydroxybenzoate

> <PUBCHEM_IUPAC_NAME>
[2,3-dihydroxy-5-[[(2S,3S,4R,5S,6R)-3,4,5,6-tetrakis[[3,4-dihydroxy-5-(3,4,5-trihydroxybenzoyl)oxybenzoyl]oxy]oxan-2-yl]methoxycarbonyl]phenyl] 3,4,5-trihydroxybenzoate

> <PUBCHEM_IUPAC_SYSTEMATIC_NAME>
[2,3-bis(oxidanyl)-5-[[(2S,3S,4R,5S,6R)-3,4,5,6-tetrakis[[3,4-bis(oxidanyl)-5-[3,4,5-tris(oxidanyl)phenyl]carbonyloxy-phenyl]carbonyloxy]oxan-2-yl]methoxycarbonyl]phenyl] 3,4,5-tris(oxidanyl)benzoate

> <PUBCHEM_IUPAC_TRADITIONAL_NAME>
3,4,5-trihydroxybenzoic acid [2,3-dihydroxy-5-[[(2S,3S,4R,5S,6R)-3,4,5,6-tetrakis[(3-galloyloxy-4,5-dihydroxy-benzoyl)oxy]tetrahydropyran-2-yl]methoxycarbonyl]phenyl] ester

> <PUBCHEM_IUPAC_INCHI>
InChI=1S/C76H52O46/c77-32-1-22(2-33(78)53(32)92)67(103)113-47-16-27(11-42(87)58(47)97)66(102)112-21-52-63(119-72(108)28-12-43(88)59(98)48(17-28)114-68(104)23-3-34(79)54(93)35(80)4-23)64(120-73(109)29-13-44(89)60(99)49(18-29)115-69(105)24-5-36(81)55(94)37(82)6-24)65(121-74(110)30-14-45(90)61(100)50(19-30)116-70(106)25-7-38(83)56(95)39(84)8-25)76(118-52)122-75(111)31-15-46(91)62(101)51(20-31)117-71(107)26-9-40(85)57(96)41(86)10-26/h1-20,52,63-65,76-101H,21H2/t52-,63-,64+,65-,76+/m0/s1

> <PUBCHEM_IUPAC_INCHIKEY>
LRBQNJMCXXYXIU-QWKBTXIPSA-N

> <PUBCHEM_XLOGP3_AA>
6.2

> <PUBCHEM_EXACT_MASS>
1700.172974

> <PUBCHEM_MOLECULAR_FORMULA>
C76H52O46

> <PUBCHEM_MOLECULAR_WEIGHT>
1701.2

> <PUBCHEM_OPENEYE_CAN_SMILES>
C1=C(C=C(C(=C1O)O)O)C(=O)OC2=CC(=CC(=C2O)O)C(=O)OCC3C(C(C(C(O3)OC(=O)C4=CC(=C(C(=C4)OC(=O)C5=CC(=C(C(=C5)O)O)O)O)O)OC(=O)C6=CC(=C(C(=C6)OC(=O)C7=CC(=C(C(=C7)O)O)O)O)O)OC(=O)C8=CC(=C(C(=C8)OC(=O)C9=CC(=C(C(=C9)O)O)O)O)O)OC(=O)C1=CC(=C(C(=C1)OC(=O)C1=CC(=C(C(=C1)O)O)O)O)O

> <PUBCHEM_OPENEYE_ISO_SMILES>
C1=C(C=C(C(=C1O)O)O)C(=O)OC2=CC(=CC(=C2O)O)C(=O)OC[C@H]3[C@@H]([C@H]([C@@H]([C@H](O3)OC(=O)C4=CC(=C(C(=C4)OC(=O)C5=CC(=C(C(=C5)O)O)O)O)O)OC(=O)C6=CC(=C(C(=C6)OC(=O)C7=CC(=C(C(=C7)O)O)O)O)O)OC(=O)C8=CC(=C(C(=C8)OC(=O)C9=CC(=C(C(=C9)O)O)O)O)O)OC(=O)C1=CC(=C(C(=C1)OC(=O)C1=CC(=C(C(=C1)O)O)O)O)O

> <PUBCHEM_CACTVS_TPSA>
778

> <PUBCHEM_MONOISOTOPIC_WEIGHT>
1700.172974

> <PUBCHEM_TOTAL_CHARGE>
0

> <PUBCHEM_HEAVY_ATOM_COUNT>
122

> <PUBCHEM_ATOM_DEF_STEREO_COUNT>
5

> <PUBCHEM_ATOM_UDEF_STEREO_COUNT>
0

> <PUBCHEM_BOND_DEF_STEREO_COUNT>
0

> <PUBCHEM_BOND_UDEF_STEREO_COUNT>
0

> <PUBCHEM_ISOTOPIC_ATOM_COUNT>
0

> <PUBCHEM_COMPONENT_COUNT>
1

> <PUBCHEM_CACTVS_TAUTO_COUNT>
-1

> <PUBCHEM_COORDINATE_TYPE>
1
5
255

> <PUBCHEM_BONDANNOTATIONS>
100  109  8
101  108  8
102  111  8
103  110  8
104  117  8
105  116  8
106  114  8
107  114  8
108  115  8
109  115  8
110  118  8
111  118  8
112  121  8
113  120  8
116  119  8
117  119  8
120  122  8
121  122  8
47  2  6
48  3  5
49  4  5
51  5  6
50  52  6
57  63  8
57  65  8
58  64  8
58  66  8
59  67  8
59  68  8
61  69  8
61  70  8
62  77  8
62  78  8
63  71  8
64  72  8
65  73  8
66  74  8
67  75  8
68  76  8
69  81  8
70  82  8
71  79  8
72  80  8
73  79  8
74  80  8
75  83  8
76  83  8
77  85  8
78  86  8
81  84  8
82  84  8
85  87  8
86  87  8
92  98  8
92  99  8
93  100  8
93  101  8
95  102  8
95  103  8
96  104  8
96  105  8
97  112  8
97  113  8
98  107  8
99  106  8

$$$$
16129878
  -OEChem-04052116542D

174184  0     1  0  0  0  0  0999 V2000
   12.9292    1.0000    0.0000 O   0  0  0  0  0  0  0  0  0  0  0  0
   12.9292   -2.0000    0.0000 O   0  0  0  0  0  0  0  0  0  0  0  0
   11.1972   -1.0000    0.0000 O   0  0  0  0  0  0  0  0  0  0  0  0
   14.6613   -1.0000    0.0000 O   0  0  0  0  0  0  0  0  0  0  0  0
   14.6613    1.0000    0.0000 O   0  0  0  0  0  0  0  0  0  0  0  0
   11.1972    2.0000    0.0000 O   0  0  0  0  0  0  0  0  0  0  0  0
   11.1972   -2.0000    0.0000 O   0  0  0  0  0  0  0  0  0  0  0  0
   10.3312    0.5000    0.0000 O   0  0  0  0  0  0  0  0  0  0  0  0
   15.5273    0.5000    0.0000 O   0  0  0  0  0  0  0  0  0  0  0  0
   13.7953    2.5000    0.0000 O   0  0  0  0  0  0  0  0  0  0  0  0
    9.4651    2.0000    0.0000 O   0  0  0  0  0  0  0  0  0  0  0  0
   10.3312   -5.5000    0.0000 O   0  0  0  0  0  0  0  0  0  0  0  0
    6.8671   -0.5000    0.0000 O   0  0  0  0  0  0  0  0  0  0  0  0
   17.2594   -3.5000    0.0000 O   0  0  0  0  0  0  0  0  0  0  0  0
   13.7953   -5.5000    0.0000 O   0  0  0  0  0  0  0  0  0  0  0  0
    8.5991   -3.5000    0.0000 O   0  0  0  0  0  0  0  0  0  0  0  0
   18.9914   -0.5000    0.0000 O   0  0  0  0  0  0  0  0  0  0  0  0
   18.1254    2.0000    0.0000 O   0  0  0  0  0  0  0  0  0  0  0  0
   12.0632   -6.5000    0.0000 O   0  0  0  0  0  0  0  0  0  0  0  0
    6.8671   -2.5000    0.0000 O   0  0  0  0  0  0  0  0  0  0  0  0
   16.3933    5.0000    0.0000 O   0  0  0  0  0  0  0  0  0  0  0  0
   18.9914   -2.5000    0.0000 O   0  0  0  0  0  0  0  0  0  0  0  0
   18.1254    4.0000    0.0000 O   0  0  0  0  0  0  0  0  0  0  0  0
   12.0632    5.5000    0.0000 O   0  0  0  0  0  0  0  0  0  0  0  0
    8.5991    5.5000    0.0000 O   0  0  0  0  0  0  0  0  0  0  0  0
   10.3312    6.5000    0.0000 O   0  0  0  0  0  0  0  0  0  0  0  0
   11.1972   -7.0000    0.0000 O   0  0  0  0  0  0  0  0  0  0  0  0
    6.0010   -2.0000    0.0000 O   0  0  0  0  0  0  0  0  0  0  0  0
   18.9914   -3.5000    0.0000 O   0  0  0  0  0  0  0  0  0  0  0  0
   18.9914    3.5000    0.0000 O   0  0  0  0  0  0  0  0  0  0  0  0
   11.1972    7.0000    0.0000 O   0  0  0  0  0  0  0  0  0  0  0  0
    8.5991   -9.5000    0.0000 O   0  0  0  0  0  0  0  0  0  0  0  0
    6.8671   -6.5000    0.0000 O   0  0  0  0  0  0  0  0  0  0  0  0
    2.5369   -1.0000    0.0000 O   0  0  0  0  0  0  0  0  0  0  0  0
    4.2690    2.0000    0.0000 O   0  0  0  0  0  0  0  0  0  0  0  0
   19.8574   -7.0000    0.0000 O   0  0  0  0  0  0  0  0  0  0  0  0
   16.3933   -7.0000    0.0000 O   0  0  0  0  0  0  0  0  0  0  0  0
    6.8671   -8.5000    0.0000 O   0  0  0  0  0  0  0  0  0  0  0  0
    2.5369    1.0000    0.0000 O   0  0  0  0  0  0  0  0  0  0  0  0
   22.4555    2.5000    0.0000 O   0  0  0  0  0  0  0  0  0  0  0  0
   20.7235   -0.5000    0.0000 O   0  0  0  0  0  0  0  0  0  0  0  0
   18.1254   -8.0000    0.0000 O   0  0  0  0  0  0  0  0  0  0  0  0
   22.4555    0.5000    0.0000 O   0  0  0  0  0  0  0  0  0  0  0  0
   13.7953    9.5000    0.0000 O   0  0  0  0  0  0  0  0  0  0  0  0
   15.5273    6.5000    0.0000 O   0  0  0  0  0  0  0  0  0  0  0  0
   15.5273    8.5000    0.0000 O   0  0  0  0  0  0  0  0  0  0  0  0
   12.9292   -1.0000    0.0000 C   0  0  3  0  0  0  0  0  0  0  0  0
   12.0632   -0.5000    0.0000 C   0  0  3  0  0  0  0  0  0  0  0  0
   13.7953   -0.5000    0.0000 C   0  0  3  0  0  0  0  0  0  0  0  0
   12.0632    0.5000    0.0000 C   0  0  3  0  0  0  0  0  0  0  0  0
   13.7953    0.5000    0.0000 C   0  0  3  0  0  0  0  0  0  0  0  0
   11.1972    1.0000    0.0000 C   0  0  0  0  0  0  0  0  0  0  0  0
   12.0632   -2.5000    0.0000 C   0  0  0  0  0  0  0  0  0  0  0  0
   10.3312   -0.5000    0.0000 C   0  0  0  0  0  0  0  0  0  0  0  0
   15.5273   -0.5000    0.0000 C   0  0  0  0  0  0  0  0  0  0  0  0
   14.6613    2.0000    0.0000 C   0  0  0  0  0  0  0  0  0  0  0  0
   12.0632   -3.5000    0.0000 C   0  0  0  0  0  0  0  0  0  0  0  0
    9.4651   -1.0000    0.0000 C   0  0  0  0  0  0  0  0  0  0  0  0
   16.3933   -1.0000    0.0000 C   0  0  0  0  0  0  0  0  0  0  0  0
   10.3312    2.5000    0.0000 C   0  0  0  0  0  0  0  0  0  0  0  0
   15.5273    2.5000    0.0000 C   0  0  0  0  0  0  0  0  0  0  0  0
   10.3312    3.5000    0.0000 C   0  0  0  0  0  0  0  0  0  0  0  0
   11.1972   -4.0000    0.0000 C   0  0  0  0  0  0  0  0  0  0  0  0
    8.5991   -0.5000    0.0000 C   0  0  0  0  0  0  0  0  0  0  0  0
   12.9292   -4.0000    0.0000 C   0  0  0  0  0  0  0  0  0  0  0  0
    9.4651   -2.0000    0.0000 C   0  0  0  0  0  0  0  0  0  0  0  0
   16.3933   -2.0000    0.0000 C   0  0  0  0  0  0  0  0  0  0  0  0
   17.2594   -0.5000    0.0000 C   0  0  0  0  0  0  0  0  0  0  0  0
   16.3933    2.0000    0.0000 C   0  0  0  0  0  0  0  0  0  0  0  0
   15.5273    3.5000    0.0000 C   0  0  0  0  0  0  0  0  0  0  0  0
   11.1972   -5.0000    0.0000 C   0  0  0  0  0  0  0  0  0  0  0  0
    7.7331   -1.0000    0.0000 C   0  0  0  0  0  0  0  0  0  0  0  0
   12.9292   -5.0000    0.0000 C   0  0  0  0  0  0  0  0  0  0  0  0
    8.5991   -2.5000    0.0000 C   0  0  0  0  0  0  0  0  0  0  0  0
   17.2594   -2.5000    0.0000 C   0  0  0  0  0  0  0  0  0  0  0  0
   18.1254   -1.0000    0.0000 C   0  0  0  0  0  0  0  0  0  0  0  0
   11.1972    4.0000    0.0000 C   0  0  0  0  0  0  0  0  0  0  0  0
    9.4651    4.0000    0.0000 C   0  0  0  0  0  0  0  0  0  0  0  0
   12.0632   -5.5000    0.0000 C   0  0  0  0  0  0  0  0  0  0  0  0
    7.7331   -2.0000    0.0000 C   0  0  0  0  0  0  0  0  0  0  0  0
   17.2594    2.5000    0.0000 C   0  0  0  0  0  0  0  0  0  0  0  0
   16.3933    4.0000    0.0000 C   0  0  0  0  0  0  0  0  0  0  0  0
   18.1254   -2.0000    0.0000 C   0  0  0  0  0  0  0  0  0  0  0  0
   17.2594    3.5000    0.0000 C   0  0  0  0  0  0  0  0  0  0  0  0
   11.1972    5.0000    0.0000 C   0  0  0  0  0  0  0  0  0  0  0  0
    9.4651    5.0000    0.0000 C   0  0  0  0  0  0  0  0  0  0  0  0
   10.3312    5.5000    0.0000 C   0  0  0  0  0  0  0  0  0  0  0  0
   10.3312   -6.5000    0.0000 C   0  0  0  0  0  0  0  0  0  0  0  0
    6.0010   -1.0000    0.0000 C   0  0  0  0  0  0  0  0  0  0  0  0
   18.1254   -4.0000    0.0000 C   0  0  0  0  0  0  0  0  0  0  0  0
   18.9914    2.5000    0.0000 C   0  0  0  0  0  0  0  0  0  0  0  0
    9.4651   -7.0000    0.0000 C   0  0  0  0  0  0  0  0  0  0  0  0
    5.1350   -0.5000    0.0000 C   0  0  0  0  0  0  0  0  0  0  0  0
   12.0632    6.5000    0.0000 C   0  0  0  0  0  0  0  0  0  0  0  0
   18.1254   -5.0000    0.0000 C   0  0  0  0  0  0  0  0  0  0  0  0
   19.8574    2.0000    0.0000 C   0  0  0  0  0  0  0  0  0  0  0  0
   12.9292    7.0000    0.0000 C   0  0  0  0  0  0  0  0  0  0  0  0
    8.5991   -6.5000    0.0000 C   0  0  0  0  0  0  0  0  0  0  0  0
    9.4651   -8.0000    0.0000 C   0  0  0  0  0  0  0  0  0  0  0  0
    5.1350    0.5000    0.0000 C   0  0  0  0  0  0  0  0  0  0  0  0
    4.2690   -1.0000    0.0000 C   0  0  0  0  0  0  0  0  0  0  0  0
   17.2594   -5.5000    0.0000 C   0  0  0  0  0  0  0  0  0  0  0  0
   18.9914   -5.5000    0.0000 C   0  0  0  0  0  0  0  0  0  0  0  0
   19.8574    1.0000    0.0000 C   0  0  0  0  0  0  0  0  0  0  0  0
   20.7235    2.5000    0.0000 C   0  0  0  0  0  0  0  0  0  0  0  0
    8.5991   -8.5000    0.0000 C   0  0  0  0  0  0  0  0  0  0  0  0
    7.7331   -7.0000    0.0000 C   0  0  0  0  0  0  0  0  0  0  0  0
    3.4030   -0.5000    0.0000 C   0  0  0  0  0  0  0  0  0  0  0  0
    4.2690    1.0000    0.0000 C   0  0  0  0  0  0  0  0  0  0  0  0
   18.9914   -6.5000    0.0000 C   0  0  0  0  0  0  0  0  0  0  0  0
   17.2594   -6.5000    0.0000 C   0  0  0  0  0  0  0  0  0  0  0  0
   13.7953    6.5000    0.0000 C   0  0  0  0  0  0  0  0  0  0  0  0
   12.9292    8.0000    0.0000 C   0  0  0  0  0  0  0  0  0  0  0  0
    7.7331   -8.0000    0.0000 C   0  0  0  0  0  0  0  0  0  0  0  0
    3.4030    0.5000    0.0000 C   0  0  0  0  0  0  0  0  0  0  0  0
   21.5895    2.0000    0.0000 C   0  0  0  0  0  0  0  0  0  0  0  0
   20.7235    0.5000    0.0000 C   0  0  0  0  0  0  0  0  0  0  0  0
   18.1254   -7.0000    0.0000 C   0  0  0  0  0  0  0  0  0  0  0  0
   21.5895    1.0000    0.0000 C   0  0  0  0  0  0  0  0  0  0  0  0
   13.7953    8.5000    0.0000 C   0  0  0  0  0  0  0  0  0  0  0  0
   14.6613    7.0000    0.0000 C   0  0  0  0  0  0  0  0  0  0  0  0
   14.6613    8.0000    0.0000 C   0  0  0  0  0  0  0  0  0  0  0  0
   12.3923   -1.3100    0.0000 H   0  0  0  0  0  0  0  0  0  0  0  0
   11.5263   -0.1900    0.0000 H   0  0  0  0  0  0  0  0  0  0  0  0
   13.7953   -1.1200    0.0000 H   0  0  0  0  0  0  0  0  0  0  0  0
   12.0632    1.1200    0.0000 H   0  0  0  0  0  0  0  0  0  0  0  0
   14.3322    0.1900    0.0000 H   0  0  0  0  0  0  0  0  0  0  0  0
   10.5866    1.1077    0.0000 H   0  0  0  0  0  0  0  0  0  0  0  0
   10.9851    0.4174    0.0000 H   0  0  0  0  0  0  0  0  0  0  0  0
   10.6603   -3.6900    0.0000 H   0  0  0  0  0  0  0  0  0  0  0  0
    8.5991    0.1200    0.0000 H   0  0  0  0  0  0  0  0  0  0  0  0
   13.4662   -3.6900    0.0000 H   0  0  0  0  0  0  0  0  0  0  0  0
   10.0021   -2.3100    0.0000 H   0  0  0  0  0  0  0  0  0  0  0  0
   15.8564   -2.3100    0.0000 H   0  0  0  0  0  0  0  0  0  0  0  0
   17.2594    0.1200    0.0000 H   0  0  0  0  0  0  0  0  0  0  0  0
   16.3933    1.3800    0.0000 H   0  0  0  0  0  0  0  0  0  0  0  0
   14.9904    3.8100    0.0000 H   0  0  0  0  0  0  0  0  0  0  0  0
   11.7341    3.6900    0.0000 H   0  0  0  0  0  0  0  0  0  0  0  0
    8.9282    3.6900    0.0000 H   0  0  0  0  0  0  0  0  0  0  0  0
   14.3322   -5.1900    0.0000 H   0  0  0  0  0  0  0  0  0  0  0  0
    8.0622   -3.8100    0.0000 H   0  0  0  0  0  0  0  0  0  0  0  0
   19.5284   -0.8100    0.0000 H   0  0  0  0  0  0  0  0  0  0  0  0
   12.6002   -6.8100    0.0000 H   0  0  0  0  0  0  0  0  0  0  0  0
    6.8671   -3.1200    0.0000 H   0  0  0  0  0  0  0  0  0  0  0  0
   15.8564    5.3100    0.0000 H   0  0  0  0  0  0  0  0  0  0  0  0
   19.5284   -2.1900    0.0000 H   0  0  0  0  0  0  0  0  0  0  0  0
   18.1254    4.6200    0.0000 H   0  0  0  0  0  0  0  0  0  0  0  0
    8.0622    5.1900    0.0000 H   0  0  0  0  0  0  0  0  0  0  0  0
    9.7942    6.8100    0.0000 H   0  0  0  0  0  0  0  0  0  0  0  0
    8.5991   -5.8800    0.0000 H   0  0  0  0  0  0  0  0  0  0  0  0
   10.0021   -8.3100    0.0000 H   0  0  0  0  0  0  0  0  0  0  0  0
    5.6720    0.8100    0.0000 H   0  0  0  0  0  0  0  0  0  0  0  0
    4.2690   -1.6200    0.0000 H   0  0  0  0  0  0  0  0  0  0  0  0
   16.7224   -5.1900    0.0000 H   0  0  0  0  0  0  0  0  0  0  0  0
   19.5284   -5.1900    0.0000 H   0  0  0  0  0  0  0  0  0  0  0  0
   19.3205    0.6900    0.0000 H   0  0  0  0  0  0  0  0  0  0  0  0
   20.7235    3.1200    0.0000 H   0  0  0  0  0  0  0  0  0  0  0  0
   13.7953    5.8800    0.0000 H   0  0  0  0  0  0  0  0  0  0  0  0
   12.3923    8.3100    0.0000 H   0  0  0  0  0  0  0  0  0  0  0  0
    9.1360   -9.8100    0.0000 H   0  0  0  0  0  0  0  0  0  0  0  0
    6.3301   -6.8100    0.0000 H   0  0  0  0  0  0  0  0  0  0  0  0
    2.5369   -1.6200    0.0000 H   0  0  0  0  0  0  0  0  0  0  0  0
    3.7320    2.3100    0.0000 H   0  0  0  0  0  0  0  0  0  0  0  0
   20.3944   -6.6900    0.0000 H   0  0  0  0  0  0  0  0  0  0  0  0
   16.3933   -7.6200    0.0000 H   0  0  0  0  0  0  0  0  0  0  0  0
    6.8671   -9.1200    0.0000 H   0  0  0  0  0  0  0  0  0  0  0  0
    2.0000    0.6900    0.0000 H   0  0  0  0  0  0  0  0  0  0  0  0
   22.4555    3.1200    0.0000 H   0  0  0  0  0  0  0  0  0  0  0  0
   21.2604   -0.8100    0.0000 H   0  0  0  0  0  0  0  0  0  0  0  0
   18.6623   -8.3100    0.0000 H   0  0  0  0  0  0  0  0  0  0  0  0
   22.9925    0.8100    0.0000 H   0  0  0  0  0  0  0  0  0  0  0  0
   13.2583    9.8100    0.0000 H   0  0  0  0  0  0  0  0  0  0  0  0
   16.0643    6.8100    0.0000 H   0  0  0  0  0  0  0  0  0  0  0  0
   15.5273    9.1200    0.0000 H   0  0  0  0  0  0  0  0  0  0  0  0
  1 50  1  0  0  0  0
  1 51  1  0  0  0  0
  2 47  1  0  0  0  0
  2 53  1  0  0  0  0
  3 48  1  0  0  0  0
  3 54  1  0  0  0  0
  4 49  1  0  0  0  0
  4 55  1  0  0  0  0
  5 51  1  0  0  0  0
  5 56  1  0  0  0  0
  6 52  1  0  0  0  0
  6 60  1  0  0  0  0
  7 53  2  0  0  0  0
  8 54  2  0  0  0  0
  9 55  2  0  0  0  0
 10 56  2  0  0  0  0
 11 60  2  0  0  0  0
 12 71  1  0  0  0  0
 12 88  1  0  0  0  0
 13 72  1  0  0  0  0
 13 89  1  0  0  0  0
 14 75  1  0  0  0  0
 14 90  1  0  0  0  0
 15 73  1  0  0  0  0
 15140  1  0  0  0  0
 16 74  1  0  0  0  0
 16141  1  0  0  0  0
 17 76  1  0  0  0  0
 17142  1  0  0  0  0
 18 81  1  0  0  0  0
 18 91  1  0  0  0  0
 19 79  1  0  0  0  0
 19143  1  0  0  0  0
 20 80  1  0  0  0  0
 20144  1  0  0  0  0
 21 82  1  0  0  0  0
 21145  1  0  0  0  0
 22 83  1  0  0  0  0
 22146  1  0  0  0  0
 23 84  1  0  0  0  0
 23147  1  0  0  0  0
 24 85  1  0  0  0  0
 24 94  1  0  0  0  0
 25 86  1  0  0  0  0
 25148  1  0  0  0  0
 26 87  1  0  0  0  0
 26149  1  0  0  0  0
 27 88  2  0  0  0  0
 28 89  2  0  0  0  0
 29 90  2  0  0  0  0
 30 91  2  0  0  0  0
 31 94  2  0  0  0  0
 32106  1  0  0  0  0
 32160  1  0  0  0  0
 33107  1  0  0  0  0
 33161  1  0  0  0  0
 34108  1  0  0  0  0
 34162  1  0  0  0  0
 35109  1  0  0  0  0
 35163  1  0  0  0  0
 36110  1  0  0  0  0
 36164  1  0  0  0  0
 37111  1  0  0  0  0
 37165  1  0  0  0  0
 38114  1  0  0  0  0
 38166  1  0  0  0  0
 39115  1  0  0  0  0
 39167  1  0  0  0  0
 40116  1  0  0  0  0
 40168  1  0  0  0  0
 41117  1  0  0  0  0
 41169  1  0  0  0  0
 42118  1  0  0  0  0
 42170  1  0  0  0  0
 43119  1  0  0  0  0
 43171  1  0  0  0  0
 44120  1  0  0  0  0
 44172  1  0  0  0  0
 45121  1  0  0  0  0
 45173  1  0  0  0  0
 46122  1  0  0  0  0
 46174  1  0  0  0  0
 47 48  1  0  0  0  0
 47 49  1  0  0  0  0
 47123  1  0  0  0  0
 48 50  1  0  0  0  0
 48124  1  0  0  0  0
 49 51  1  0  0  0  0
 49125  1  0  0  0  0
 50 52  1  0  0  0  0
 50126  1  0  0  0  0
 51127  1  0  0  0  0
 52128  1  0  0  0  0
 52129  1  0  0  0  0
 53 57  1  0  0  0  0
 54 58  1  0  0  0  0
 55 59  1  0  0  0  0
 56 61  1  0  0  0  0
 57 63  1  0  0  0  0
 57 65  2  0  0  0  0
 58 64  1  0  0  0  0
 58 66  2  0  0  0  0
 59 67  1  0  0  0  0
 59 68  2  0  0  0  0
 60 62  1  0  0  0  0
 61 69  1  0  0  0  0
 61 70  2  0  0  0  0
 62 77  1  0  0  0  0
 62 78  2  0  0  0  0
 63 71  2  0  0  0  0
 63130  1  0  0  0  0
 64 72  2  0  0  0  0
 64131  1  0  0  0  0
 65 73  1  0  0  0  0
 65132  1  0  0  0  0
 66 74  1  0  0  0  0
 66133  1  0  0  0  0
 67 75  2  0  0  0  0
 67134  1  0  0  0  0
 68 76  1  0  0  0  0
 68135  1  0  0  0  0
 69 81  2  0  0  0  0
 69136  1  0  0  0  0
 70 82  1  0  0  0  0
 70137  1  0  0  0  0
 71 79  1  0  0  0  0
 72 80  1  0  0  0  0
 73 79  2  0  0  0  0
 74 80  2  0  0  0  0
 75 83  1  0  0  0  0
 76 83  2  0  0  0  0
 77 85  2  0  0  0  0
 77138  1  0  0  0  0
 78 86  1  0  0  0  0
 78139  1  0  0  0  0
 81 84  1  0  0  0  0
 82 84  2  0  0  0  0
 85 87  1  0  0  0  0
 86 87  2  0  0  0  0
 88 92  1  0  0  0  0
 89 93  1  0  0  0  0
 90 95  1  0  0  0  0
 91 96  1  0  0  0  0
 92 98  2  0  0  0  0
 92 99  1  0  0  0  0
 93100  2  0  0  0  0
 93101  1  0  0  0  0
 94 97  1  0  0  0  0
 95102  2  0  0  0  0
 95103  1  0  0  0  0
 96104  2  0  0  0  0
 96105  1  0  0  0  0
 97112  2  0  0  0  0
 97113  1  0  0  0  0
 98107  1  0  0  0  0
 98150  1  0  0  0  0
 99106  2  0  0  0  0
 99151  1  0  0  0  0
100109  1  0  0  0  0
100152  1  0  0  0  0
101108  2  0  0  0  0
101153  1  0  0  0  0
102111  1  0  0  0  0
102154  1  0  0  0  0
103110  2  0  0  0  0
103155  1  0  0  0  0
104117  1  0  0  0  0
104156  1  0  0  0  0
105116  2  0  0  0  0
105157  1  0  0  0  0
106114  1  0  0  0  0
107114  2  0  0  0  0
108115  1  0  0  0  0
109115  2  0  0  0  0
110118  1  0  0  0  0
111118  2  0  0  0  0
112121  1  0  0  0  0
112158  1  0  0  0  0
113120  2  0  0  0  0
113159  1  0  0  0  0
116119  1  0  0  0  0
117119  2  0  0  0  0
120122  1  0  0  0  0
121122  2  0  0  0  0
M  END
> <PUBCHEM_COMPOUND_CID>
16129878

> <PUBCHEM_COMPOUND_CANONICALIZED>
1

> <PUBCHEM_CACTVS_COMPLEXITY>
3570

> <PUBCHEM_CACTVS_HBOND_ACCEPTOR>
46

> <PUBCHEM_CACTVS_HBOND_DONOR>
25

> <PUBCHEM_CACTVS_ROTATABLE_BOND>
31

> <PUBCHEM_CACTVS_SUBSKEYS>
AAADcfB8PgAAAAAAAAAAAAAAAAAAAAAAAAA0YMGDAAAAAAABVAAAGgAACAAADBSwmAMwDoAABgCIAiDSCAACCAAkIAAAiAEGiMgdJzKGNRqieyOlwBUPuYfK7DzOIAABCAAAQABAAAIQAACAAAAAAAAAAA==

> <PUBCHEM_IUPAC_OPENEYE_NAME>
[2,3-dihydroxy-5-[[3,4,5,6-tetrakis[[3,4-dihydroxy-5-(3,4,5-trihydroxybenzoyl)oxy-benzoyl]oxy]tetrahydropyran-2-yl]methoxycarbonyl]phenyl] 3,4,5-trihydroxybenzoate

> <PUBCHEM_IUPAC_CAS_NAME>
3,4,5-trihydroxybenzoic acid [2,3-dihydroxy-5-[oxo-[[3,4,5,6-tetrakis[[3,4-dihydroxy-5-[oxo-(3,4,5-trihydroxyphenyl)methoxy]phenyl]-oxomethoxy]-2-oxanyl]methoxy]methyl]phenyl] ester

> <PUBCHEM_IUPAC_NAME_MARKUP>
[2,3-dihydroxy-5-[[3,4,5,6-tetrakis[[3,4-dihydroxy-5-(3,4,5-trihydroxybenzoyl)oxybenzoyl]oxy]oxan-2-yl]methoxycarbonyl]phenyl] 3,4,5-trihydroxybenzoate

> <PUBCHEM_IUPAC_NAME>
[2,3-dihydroxy-5-[[3,4,5,6-tetrakis[[3,4-dihydroxy-5-(3,4,5-trihydroxybenzoyl)oxybenzoyl]oxy]oxan-2-yl]methoxycarbonyl]phenyl] 3,4,5-trihydroxybenzoate

> <PUBCHEM_IUPAC_SYSTEMATIC_NAME>
[2,3-bis(oxidanyl)-5-[[3,4,5,6-tetrakis[[3,4-bis(oxidanyl)-5-[3,4,5-tris(oxidanyl)phenyl]carbonyloxy-phenyl]carbonyloxy]oxan-2-yl]methoxycarbonyl]phenyl] 3,4,5-tris(oxidanyl)benzoate

> <PUBCHEM_IUPAC_TRADITIONAL_NAME>
3,4,5-trihydroxybenzoic acid [2,3-dihydroxy-5-[[3,4,5,6-tetrakis[(3-galloyloxy-4,5-dihydroxy-benzoyl)oxy]tetrahydropyran-2-yl]methoxycarbonyl]phenyl] ester

> <PUBCHEM_IUPAC_INCHI>
InChI=1S/C76H52O46/c77-32-1-22(2-33(78)53(32)92)67(103)113-47-16-27(11-42(87)58(47)97)66(102)112-21-52-63(119-72(108)28-12-43(88)59(98)48(17-28)114-68(104)23-3-34(79)54(93)35(80)4-23)64(120-73(109)29-13-44(89)60(99)49(18-29)115-69(105)24-5-36(81)55(94)37(82)6-24)65(121-74(110)30-14-45(90)61(100)50(19-30)116-70(106)25-7-38(83)56(95)39(84)8-25)76(118-52)122-75(111)31-15-46(91)62(101)51(20-31)117-71(107)26-9-40(85)57(96)41(86)10-26/h1-20,52,63-65,76-101H,21H2

> <PUBCHEM_IUPAC_INCHIKEY>
LRBQNJMCXXYXIU-UHFFFAOYSA-N

> <PUBCHEM_XLOGP3_AA>
6.2

> <PUBCHEM_EXACT_MASS>
1700.172974

> <PUBCHEM_MOLECULAR_FORMULA>
C76H52O46

> <PUBCHEM_MOLECULAR_WEIGHT>
1701.2

> <PUBCHEM_OPENEYE_CAN_SMILES>
C1=C(C=C(C(=C1O)O)O)C(=O)OC2=CC(=CC(=C2O)O)C(=O)OCC3C(C(C(C(O3)OC(=O)C4=CC(=C(C(=C4)OC(=O)C5=CC(=C(C(=C5)O)O)O)O)O)OC(=O)C6=CC(=C(C(=C6)OC(=O)C7=CC(=C(C(=C7)O)O)O)O)O)OC(=O)C8=CC(=C(C(=C8)OC(=O)C9=CC(=C(C(=C9)O)O)O)O)O)OC(=O)C1=CC(=C(C(=C1)OC(=O)C1=CC(=C(C(=C1)O)O)O)O)O

> <PUBCHEM_OPENEYE_ISO_SMILES>
C1=C(C=C(C(=C1O)O)O)C(=O)OC2=CC(=CC(=C2O)O)C(=O)OCC3C(C(C(C(O3)OC(=O)C4=CC(=C(C(=C4)OC(=O)C5=CC(=C(C(=C5)O)O)O)O)O)OC(=O)C6=CC(=C(C(=C6)OC(=O)C7=CC(=C(C(=C7)O)O)O)O)O)OC(=O)C8=CC(=C(C(=C8)OC(=O)C9=CC(=C(C(=C9)O)O)O)O)O)OC(=O)C1=CC(=C(C(=C1)OC(=O)C1=CC(=C(C(=C1)O)O)O)O)O

> <PUBCHEM_CACTVS_TPSA>
778

> <PUBCHEM_MONOISOTOPIC_WEIGHT>
1700.172974

> <PUBCHEM_TOTAL_CHARGE>
0

> <PUBCHEM_HEAVY_ATOM_COUNT>
122

> <PUBCHEM_ATOM_DEF_STEREO_COUNT>
0

> <PUBCHEM_ATOM_UDEF_STEREO_COUNT>
5

> <PUBCHEM_BOND_DEF_STEREO_COUNT>
0

> <PUBCHEM_BOND_UDEF_STEREO_COUNT>
0

> <PUBCHEM_ISOTOPIC_ATOM_COUNT>
0

> <PUBCHEM_COMPONENT_COUNT>
1

> <PUBCHEM_CACTVS_TAUTO_COUNT>
-1

> <PUBCHEM_COORDINATE_TYPE>
1
5
255

> <PUBCHEM_BONDANNOTATIONS>
100  109  8
101  108  8
102  111  8
103  110  8
104  117  8
105  116  8
106  114  8
107  114  8
108  115  8
109  115  8
110  118  8
111  118  8
112  121  8
113  120  8
116  119  8
117  119  8
120  122  8
121  122  8
47  2  3
48  3  3
49  4  3
51  5  3
50  52  3
57  63  8
57  65  8
58  64  8
58  66  8
59  67  8
59  68  8
61  69  8
61  70  8
62  77  8
62  78  8
63  71  8
64  72  8
65  73  8
66  74  8
67  75  8
68  76  8
69  81  8
70  82  8
71  79  8
72  80  8
73  79  8
74  80  8
75  83  8
76  83  8
77  85  8
78  86  8
81  84  8
82  84  8
85  87  8
86  87  8
92  98  8
92  99  8
93  100  8
93  101  8
95  102  8
95  103  8
96  104  8
96  105  8
97  112  8
97  113  8
98  107  8
99  106  8

$$$$
16129778
  -OEChem-04052116542D

174184  0     1  0  0  0  0  0999 V2000
   12.9292    1.0000    0.0000 O   0  0  0  0  0  0  0  0  0  0  0  0
   12.9292   -2.0000    0.0000 O   0  0  0  0  0  0  0  0  0  0  0  0
   11.1972   -1.0000    0.0000 O   0  0  0  0  0  0  0  0  0  0  0  0
   14.6613   -1.0000    0.0000 O   0  0  0  0  0  0  0  0  0  0  0  0
   14.6613    1.0000    0.0000 O   0  0  0  0  0  0  0  0  0  0  0  0
   11.1972    2.0000    0.0000 O   0  0  0  0  0  0  0  0  0  0  0  0
   11.1972   -2.0000    0.0000 O   0  0  0  0  0  0  0  0  0  0  0  0
   10.3312    0.5000    0.0000 O   0  0  0  0  0  0  0  0  0  0  0  0
   15.5273    0.5000    0.0000 O   0  0  0  0  0  0  0  0  0  0  0  0
   13.7953    2.5000    0.0000 O   0  0  0  0  0  0  0  0  0  0  0  0
    9.4651    2.0000    0.0000 O   0  0  0  0  0  0  0  0  0  0  0  0
   10.3312   -5.5000    0.0000 O   0  0  0  0  0  0  0  0  0  0  0  0
    6.8671   -0.5000    0.0000 O   0  0  0  0  0  0  0  0  0  0  0  0
   17.2594   -3.5000    0.0000 O   0  0  0  0  0  0  0  0  0  0  0  0
   13.7953   -5.5000    0.0000 O   0  0  0  0  0  0  0  0  0  0  0  0
    8.5991   -3.5000    0.0000 O   0  0  0  0  0  0  0  0  0  0  0  0
   18.9914   -0.5000    0.0000 O   0  0  0  0  0  0  0  0  0  0  0  0
   18.1254    2.0000    0.0000 O   0  0  0  0  0  0  0  0  0  0  0  0
   12.0632   -6.5000    0.0000 O   0  0  0  0  0  0  0  0  0  0  0  0
    6.8671   -2.5000    0.0000 O   0  0  0  0  0  0  0  0  0  0  0  0
   16.3933    5.0000    0.0000 O   0  0  0  0  0  0  0  0  0  0  0  0
   18.9914   -2.5000    0.0000 O   0  0  0  0  0  0  0  0  0  0  0  0
   18.1254    4.0000    0.0000 O   0  0  0  0  0  0  0  0  0  0  0  0
   12.0632    5.5000    0.0000 O   0  0  0  0  0  0  0  0  0  0  0  0
    8.5991    5.5000    0.0000 O   0  0  0  0  0  0  0  0  0  0  0  0
   10.3312    6.5000    0.0000 O   0  0  0  0  0  0  0  0  0  0  0  0
   11.1972   -7.0000    0.0000 O   0  0  0  0  0  0  0  0  0  0  0  0
    6.0010   -2.0000    0.0000 O   0  0  0  0  0  0  0  0  0  0  0  0
   18.9914   -3.5000    0.0000 O   0  0  0  0  0  0  0  0  0  0  0  0
   18.9914    3.5000    0.0000 O   0  0  0  0  0  0  0  0  0  0  0  0
   11.1972    7.0000    0.0000 O   0  0  0  0  0  0  0  0  0  0  0  0
    8.5991   -9.5000    0.0000 O   0  0  0  0  0  0  0  0  0  0  0  0
    6.8671   -6.5000    0.0000 O   0  0  0  0  0  0  0  0  0  0  0  0
    2.5369   -1.0000    0.0000 O   0  0  0  0  0  0  0  0  0  0  0  0
    4.2690    2.0000    0.0000 O   0  0  0  0  0  0  0  0  0  0  0  0
   19.8574   -7.0000    0.0000 O   0  0  0  0  0  0  0  0  0  0  0  0
   16.3933   -7.0000    0.0000 O   0  0  0  0  0  0  0  0  0  0  0  0
    6.8671   -8.5000    0.0000 O   0  0  0  0  0  0  0  0  0  0  0  0
    2.5369    1.0000    0.0000 O   0  0  0  0  0  0  0  0  0  0  0  0
   22.4555    2.5000    0.0000 O   0  0  0  0  0  0  0  0  0  0  0  0
   20.7235   -0.5000    0.0000 O   0  0  0  0  0  0  0  0  0  0  0  0
   18.1254   -8.0000    0.0000 O   0  0  0  0  0  0  0  0  0  0  0  0
   22.4555    0.5000    0.0000 O   0  0  0  0  0  0  0  0  0  0  0  0
   13.7953    9.5000    0.0000 O   0  0  0  0  0  0  0  0  0  0  0  0
   15.5273    6.5000    0.0000 O   0  0  0  0  0  0  0  0  0  0  0  0
   15.5273    8.5000    0.0000 O   0  0  0  0  0  0  0  0  0  0  0  0
   12.9292   -1.0000    0.0000 C   0  0  1  0  0  0  0  0  0  0  0  0
   12.0632   -0.5000    0.0000 C   0  0  1  0  0  0  0  0  0  0  0  0
   13.7953   -0.5000    0.0000 C   0  0  2  0  0  0  0  0  0  0  0  0
   12.0632    0.5000    0.0000 C   0  0  1  0  0  0  0  0  0  0  0  0
   13.7953    0.5000    0.0000 C   0  0  1  0  0  0  0  0  0  0  0  0
   11.1972    1.0000    0.0000 C   0  0  0  0  0  0  0  0  0  0  0  0
   12.0632   -2.5000    0.0000 C   0  0  0  0  0  0  0  0  0  0  0  0
   10.3312   -0.5000    0.0000 C   0  0  0  0  0  0  0  0  0  0  0  0
   15.5273   -0.5000    0.0000 C   0  0  0  0  0  0  0  0  0  0  0  0
   14.6613    2.0000    0.0000 C   0  0  0  0  0  0  0  0  0  0  0  0
   12.0632   -3.5000    0.0000 C   0  0  0  0  0  0  0  0  0  0  0  0
    9.4651   -1.0000    0.0000 C   0  0  0  0  0  0  0  0  0  0  0  0
   16.3933   -1.0000    0.0000 C   0  0  0  0  0  0  0  0  0  0  0  0
   10.3312    2.5000    0.0000 C   0  0  0  0  0  0  0  0  0  0  0  0
   15.5273    2.5000    0.0000 C   0  0  0  0  0  0  0  0  0  0  0  0
   10.3312    3.5000    0.0000 C   0  0  0  0  0  0  0  0  0  0  0  0
   11.1972   -4.0000    0.0000 C   0  0  0  0  0  0  0  0  0  0  0  0
    8.5991   -0.5000    0.0000 C   0  0  0  0  0  0  0  0  0  0  0  0
   12.9292   -4.0000    0.0000 C   0  0  0  0  0  0  0  0  0  0  0  0
    9.4651   -2.0000    0.0000 C   0  0  0  0  0  0  0  0  0  0  0  0
   16.3933   -2.0000    0.0000 C   0  0  0  0  0  0  0  0  0  0  0  0
   17.2594   -0.5000    0.0000 C   0  0  0  0  0  0  0  0  0  0  0  0
   16.3933    2.0000    0.0000 C   0  0  0  0  0  0  0  0  0  0  0  0
   15.5273    3.5000    0.0000 C   0  0  0  0  0  0  0  0  0  0  0  0
   11.1972   -5.0000    0.0000 C   0  0  0  0  0  0  0  0  0  0  0  0
    7.7331   -1.0000    0.0000 C   0  0  0  0  0  0  0  0  0  0  0  0
   12.9292   -5.0000    0.0000 C   0  0  0  0  0  0  0  0  0  0  0  0
    8.5991   -2.5000    0.0000 C   0  0  0  0  0  0  0  0  0  0  0  0
   17.2594   -2.5000    0.0000 C   0  0  0  0  0  0  0  0  0  0  0  0
   18.1254   -1.0000    0.0000 C   0  0  0  0  0  0  0  0  0  0  0  0
   11.1972    4.0000    0.0000 C   0  0  0  0  0  0  0  0  0  0  0  0
    9.4651    4.0000    0.0000 C   0  0  0  0  0  0  0  0  0  0  0  0
   12.0632   -5.5000    0.0000 C   0  0  0  0  0  0  0  0  0  0  0  0
    7.7331   -2.0000    0.0000 C   0  0  0  0  0  0  0  0  0  0  0  0
   17.2594    2.5000    0.0000 C   0  0  0  0  0  0  0  0  0  0  0  0
   16.3933    4.0000    0.0000 C   0  0  0  0  0  0  0  0  0  0  0  0
   18.1254   -2.0000    0.0000 C   0  0  0  0  0  0  0  0  0  0  0  0
   17.2594    3.5000    0.0000 C   0  0  0  0  0  0  0  0  0  0  0  0
   11.1972    5.0000    0.0000 C   0  0  0  0  0  0  0  0  0  0  0  0
    9.4651    5.0000    0.0000 C   0  0  0  0  0  0  0  0  0  0  0  0
   10.3312    5.5000    0.0000 C   0  0  0  0  0  0  0  0  0  0  0  0
   10.3312   -6.5000    0.0000 C   0  0  0  0  0  0  0  0  0  0  0  0
    6.0010   -1.0000    0.0000 C   0  0  0  0  0  0  0  0  0  0  0  0
   18.1254   -4.0000    0.0000 C   0  0  0  0  0  0  0  0  0  0  0  0
   18.9914    2.5000    0.0000 C   0  0  0  0  0  0  0  0  0  0  0  0
    9.4651   -7.0000    0.0000 C   0  0  0  0  0  0  0  0  0  0  0  0
    5.1350   -0.5000    0.0000 C   0  0  0  0  0  0  0  0  0  0  0  0
   12.0632    6.5000    0.0000 C   0  0  0  0  0  0  0  0  0  0  0  0
   18.1254   -5.0000    0.0000 C   0  0  0  0  0  0  0  0  0  0  0  0
   19.8574    2.0000    0.0000 C   0  0  0  0  0  0  0  0  0  0  0  0
   12.9292    7.0000    0.0000 C   0  0  0  0  0  0  0  0  0  0  0  0
    8.5991   -6.5000    0.0000 C   0  0  0  0  0  0  0  0  0  0  0  0
    9.4651   -8.0000    0.0000 C   0  0  0  0  0  0  0  0  0  0  0  0
    5.1350    0.5000    0.0000 C   0  0  0  0  0  0  0  0  0  0  0  0
    4.2690   -1.0000    0.0000 C   0  0  0  0  0  0  0  0  0  0  0  0
   17.2594   -5.5000    0.0000 C   0  0  0  0  0  0  0  0  0  0  0  0
   18.9914   -5.5000    0.0000 C   0  0  0  0  0  0  0  0  0  0  0  0
   19.8574    1.0000    0.0000 C   0  0  0  0  0  0  0  0  0  0  0  0
   20.7235    2.5000    0.0000 C   0  0  0  0  0  0  0  0  0  0  0  0
    8.5991   -8.5000    0.0000 C   0  0  0  0  0  0  0  0  0  0  0  0
    7.7331   -7.0000    0.0000 C   0  0  0  0  0  0  0  0  0  0  0  0
    3.4030   -0.5000    0.0000 C   0  0  0  0  0  0  0  0  0  0  0  0
    4.2690    1.0000    0.0000 C   0  0  0  0  0  0  0  0  0  0  0  0
   18.9914   -6.5000    0.0000 C   0  0  0  0  0  0  0  0  0  0  0  0
   17.2594   -6.5000    0.0000 C   0  0  0  0  0  0  0  0  0  0  0  0
   13.7953    6.5000    0.0000 C   0  0  0  0  0  0  0  0  0  0  0  0
   12.9292    8.0000    0.0000 C   0  0  0  0  0  0  0  0  0  0  0  0
    7.7331   -8.0000    0.0000 C   0  0  0  0  0  0  0  0  0  0  0  0
    3.4030    0.5000    0.0000 C   0  0  0  0  0  0  0  0  0  0  0  0
   21.5895    2.0000    0.0000 C   0  0  0  0  0  0  0  0  0  0  0  0
   20.7235    0.5000    0.0000 C   0  0  0  0  0  0  0  0  0  0  0  0
   18.1254   -7.0000    0.0000 C   0  0  0  0  0  0  0  0  0  0  0  0
   21.5895    1.0000    0.0000 C   0  0  0  0  0  0  0  0  0  0  0  0
   13.7953    8.5000    0.0000 C   0  0  0  0  0  0  0  0  0  0  0  0
   14.6613    7.0000    0.0000 C   0  0  0  0  0  0  0  0  0  0  0  0
   14.6613    8.0000    0.0000 C   0  0  0  0  0  0  0  0  0  0  0  0
   12.3923   -1.3100    0.0000 H   0  0  0  0  0  0  0  0  0  0  0  0
   11.5263   -0.1900    0.0000 H   0  0  0  0  0  0  0  0  0  0  0  0
   13.7953   -1.1200    0.0000 H   0  0  0  0  0  0  0  0  0  0  0  0
   12.0632    1.1200    0.0000 H   0  0  0  0  0  0  0  0  0  0  0  0
   14.3322    0.1900    0.0000 H   0  0  0  0  0  0  0  0  0  0  0  0
   10.5866    1.1077    0.0000 H   0  0  0  0  0  0  0  0  0  0  0  0
   10.9851    0.4174    0.0000 H   0  0  0  0  0  0  0  0  0  0  0  0
   10.6603   -3.6900    0.0000 H   0  0  0  0  0  0  0  0  0  0  0  0
    8.5991    0.1200    0.0000 H   0  0  0  0  0  0  0  0  0  0  0  0
   13.4662   -3.6900    0.0000 H   0  0  0  0  0  0  0  0  0  0  0  0
   10.0021   -2.3100    0.0000 H   0  0  0  0  0  0  0  0  0  0  0  0
   15.8564   -2.3100    0.0000 H   0  0  0  0  0  0  0  0  0  0  0  0
   17.2594    0.1200    0.0000 H   0  0  0  0  0  0  0  0  0  0  0  0
   16.3933    1.3800    0.0000 H   0  0  0  0  0  0  0  0  0  0  0  0
   14.9904    3.8100    0.0000 H   0  0  0  0  0  0  0  0  0  0  0  0
   11.7341    3.6900    0.0000 H   0  0  0  0  0  0  0  0  0  0  0  0
    8.9282    3.6900    0.0000 H   0  0  0  0  0  0  0  0  0  0  0  0
   14.3322   -5.1900    0.0000 H   0  0  0  0  0  0  0  0  0  0  0  0
    8.0622   -3.8100    0.0000 H   0  0  0  0  0  0  0  0  0  0  0  0
   19.5284   -0.8100    0.0000 H   0  0  0  0  0  0  0  0  0  0  0  0
   12.6002   -6.8100    0.0000 H   0  0  0  0  0  0  0  0  0  0  0  0
    6.8671   -3.1200    0.0000 H   0  0  0  0  0  0  0  0  0  0  0  0
   15.8564    5.3100    0.0000 H   0  0  0  0  0  0  0  0  0  0  0  0
   19.5284   -2.1900    0.0000 H   0  0  0  0  0  0  0  0  0  0  0  0
   18.1254    4.6200    0.0000 H   0  0  0  0  0  0  0  0  0  0  0  0
    8.0622    5.1900    0.0000 H   0  0  0  0  0  0  0  0  0  0  0  0
    9.7942    6.8100    0.0000 H   0  0  0  0  0  0  0  0  0  0  0  0
    8.5991   -5.8800    0.0000 H   0  0  0  0  0  0  0  0  0  0  0  0
   10.0021   -8.3100    0.0000 H   0  0  0  0  0  0  0  0  0  0  0  0
    5.6720    0.8100    0.0000 H   0  0  0  0  0  0  0  0  0  0  0  0
    4.2690   -1.6200    0.0000 H   0  0  0  0  0  0  0  0  0  0  0  0
   16.7224   -5.1900    0.0000 H   0  0  0  0  0  0  0  0  0  0  0  0
   19.5284   -5.1900    0.0000 H   0  0  0  0  0  0  0  0  0  0  0  0
   19.3205    0.6900    0.0000 H   0  0  0  0  0  0  0  0  0  0  0  0
   20.7235    3.1200    0.0000 H   0  0  0  0  0  0  0  0  0  0  0  0
   13.7953    5.8800    0.0000 H   0  0  0  0  0  0  0  0  0  0  0  0
   12.3923    8.3100    0.0000 H   0  0  0  0  0  0  0  0  0  0  0  0
    9.1360   -9.8100    0.0000 H   0  0  0  0  0  0  0  0  0  0  0  0
    6.3301   -6.8100    0.0000 H   0  0  0  0  0  0  0  0  0  0  0  0
    2.5369   -1.6200    0.0000 H   0  0  0  0  0  0  0  0  0  0  0  0
    3.7320    2.3100    0.0000 H   0  0  0  0  0  0  0  0  0  0  0  0
   20.3944   -6.6900    0.0000 H   0  0  0  0  0  0  0  0  0  0  0  0
   16.3933   -7.6200    0.0000 H   0  0  0  0  0  0  0  0  0  0  0  0
    6.8671   -9.1200    0.0000 H   0  0  0  0  0  0  0  0  0  0  0  0
    2.0000    0.6900    0.0000 H   0  0  0  0  0  0  0  0  0  0  0  0
   22.4555    3.1200    0.0000 H   0  0  0  0  0  0  0  0  0  0  0  0
   21.2604   -0.8100    0.0000 H   0  0  0  0  0  0  0  0  0  0  0  0
   18.6623   -8.3100    0.0000 H   0  0  0  0  0  0  0  0  0  0  0  0
   22.9925    0.8100    0.0000 H   0  0  0  0  0  0  0  0  0  0  0  0
   13.2583    9.8100    0.0000 H   0  0  0  0  0  0  0  0  0  0  0  0
   16.0643    6.8100    0.0000 H   0  0  0  0  0  0  0  0  0  0  0  0
   15.5273    9.1200    0.0000 H   0  0  0  0  0  0  0  0  0  0  0  0
  1 50  1  0  0  0  0
  1 51  1  0  0  0  0
 47  2  1  1  0  0  0
  2 53  1  0  0  0  0
 48  3  1  6  0  0  0
  3 54  1  0  0  0  0
 49  4  1  6  0  0  0
  4 55  1  0  0  0  0
 51  5  1  1  0  0  0
  5 56  1  0  0  0  0
  6 52  1  0  0  0  0
  6 60  1  0  0  0  0
  7 53  2  0  0  0  0
  8 54  2  0  0  0  0
  9 55  2  0  0  0  0
 10 56  2  0  0  0  0
 11 60  2  0  0  0  0
 12 71  1  0  0  0  0
 12 88  1  0  0  0  0
 13 72  1  0  0  0  0
 13 89  1  0  0  0  0
 14 75  1  0  0  0  0
 14 90  1  0  0  0  0
 15 73  1  0  0  0  0
 15140  1  0  0  0  0
 16 74  1  0  0  0  0
 16141  1  0  0  0  0
 17 76  1  0  0  0  0
 17142  1  0  0  0  0
 18 81  1  0  0  0  0
 18 91  1  0  0  0  0
 19 79  1  0  0  0  0
 19143  1  0  0  0  0
 20 80  1  0  0  0  0
 20144  1  0  0  0  0
 21 82  1  0  0  0  0
 21145  1  0  0  0  0
 22 83  1  0  0  0  0
 22146  1  0  0  0  0
 23 84  1  0  0  0  0
 23147  1  0  0  0  0
 24 85  1  0  0  0  0
 24 94  1  0  0  0  0
 25 86  1  0  0  0  0
 25148  1  0  0  0  0
 26 87  1  0  0  0  0
 26149  1  0  0  0  0
 27 88  2  0  0  0  0
 28 89  2  0  0  0  0
 29 90  2  0  0  0  0
 30 91  2  0  0  0  0
 31 94  2  0  0  0  0
 32106  1  0  0  0  0
 32160  1  0  0  0  0
 33107  1  0  0  0  0
 33161  1  0  0  0  0
 34108  1  0  0  0  0
 34162  1  0  0  0  0
 35109  1  0  0  0  0
 35163  1  0  0  0  0
 36110  1  0  0  0  0
 36164  1  0  0  0  0
 37111  1  0  0  0  0
 37165  1  0  0  0  0
 38114  1  0  0  0  0
 38166  1  0  0  0  0
 39115  1  0  0  0  0
 39167  1  0  0  0  0
 40116  1  0  0  0  0
 40168  1  0  0  0  0
 41117  1  0  0  0  0
 41169  1  0  0  0  0
 42118  1  0  0  0  0
 42170  1  0  0  0  0
 43119  1  0  0  0  0
 43171  1  0  0  0  0
 44120  1  0  0  0  0
 44172  1  0  0  0  0
 45121  1  0  0  0  0
 45173  1  0  0  0  0
 46122  1  0  0  0  0
 46174  1  0  0  0  0
 47 48  1  0  0  0  0
 47 49  1  0  0  0  0
 47123  1  0  0  0  0
 48 50  1  0  0  0  0
 48124  1  0  0  0  0
 49 51  1  0  0  0  0
 49125  1  0  0  0  0
 50 52  1  1  0  0  0
 50126  1  0  0  0  0
 51127  1  0  0  0  0
 52128  1  0  0  0  0
 52129  1  0  0  0  0
 53 57  1  0  0  0  0
 54 58  1  0  0  0  0
 55 59  1  0  0  0  0
 56 61  1  0  0  0  0
 57 63  1  0  0  0  0
 57 65  2  0  0  0  0
 58 64  1  0  0  0  0
 58 66  2  0  0  0  0
 59 67  1  0  0  0  0
 59 68  2  0  0  0  0
 60 62  1  0  0  0  0
 61 69  1  0  0  0  0
 61 70  2  0  0  0  0
 62 77  1  0  0  0  0
 62 78  2  0  0  0  0
 63 71  2  0  0  0  0
 63130  1  0  0  0  0
 64 72  2  0  0  0  0
 64131  1  0  0  0  0
 65 73  1  0  0  0  0
 65132  1  0  0  0  0
 66 74  1  0  0  0  0
 66133  1  0  0  0  0
 67 75  2  0  0  0  0
 67134  1  0  0  0  0
 68 76  1  0  0  0  0
 68135  1  0  0  0  0
 69 81  2  0  0  0  0
 69136  1  0  0  0  0
 70 82  1  0  0  0  0
 70137  1  0  0  0  0
 71 79  1  0  0  0  0
 72 80  1  0  0  0  0
 73 79  2  0  0  0  0
 74 80  2  0  0  0  0
 75 83  1  0  0  0  0
 76 83  2  0  0  0  0
 77 85  2  0  0  0  0
 77138  1  0  0  0  0
 78 86  1  0  0  0  0
 78139  1  0  0  0  0
 81 84  1  0  0  0  0
 82 84  2  0  0  0  0
 85 87  1  0  0  0  0
 86 87  2  0  0  0  0
 88 92  1  0  0  0  0
 89 93  1  0  0  0  0
 90 95  1  0  0  0  0
 91 96  1  0  0  0  0
 92 98  2  0  0  0  0
 92 99  1  0  0  0  0
 93100  2  0  0  0  0
 93101  1  0  0  0  0
 94 97  1  0  0  0  0
 95102  2  0  0  0  0
 95103  1  0  0  0  0
 96104  2  0  0  0  0
 96105  1  0  0  0  0
 97112  2  0  0  0  0
 97113  1  0  0  0  0
 98107  1  0  0  0  0
 98150  1  0  0  0  0
 99106  2  0  0  0  0
 99151  1  0  0  0  0
100109  1  0  0  0  0
100152  1  0  0  0  0
101108  2  0  0  0  0
101153  1  0  0  0  0
102111  1  0  0  0  0
102154  1  0  0  0  0
103110  2  0  0  0  0
103155  1  0  0  0  0
104117  1  0  0  0  0
104156  1  0  0  0  0
105116  2  0  0  0  0
105157  1  0  0  0  0
106114  1  0  0  0  0
107114  2  0  0  0  0
108115  1  0  0  0  0
109115  2  0  0  0  0
110118  1  0  0  0  0
111118  2  0  0  0  0
112121  1  0  0  0  0
112158  1  0  0  0  0
113120  2  0  0  0  0
113159  1  0  0  0  0
116119  1  0  0  0  0
117119  2  0  0  0  0
120122  1  0  0  0  0
121122  2  0  0  0  0
M  END
> <PUBCHEM_COMPOUND_CID>
16129778

> <PUBCHEM_COMPOUND_CANONICALIZED>
1

> <PUBCHEM_CACTVS_COMPLEXITY>
3570

> <PUBCHEM_CACTVS_HBOND_ACCEPTOR>
46

> <PUBCHEM_CACTVS_HBOND_DONOR>
25

> <PUBCHEM_CACTVS_ROTATABLE_BOND>
31

> <PUBCHEM_CACTVS_SUBSKEYS>
AAADcfB8PgAAAAAAAAAAAAAAAAAAAAAAAAA0YMGDAAAAAAABVAAAGgAACAAADBSwmAMwDoAABgCIAiDSCAACCAAkIAAAiAEGiMgdJzKGNRqieyOlwBUPuYfK7DzOIAABCAAAQABAAAIQAACAAAAAAAAAAA==

> <PUBCHEM_IUPAC_OPENEYE_NAME>
[2,3-dihydroxy-5-[[(2R,3R,4S,5R,6S)-3,4,5,6-tetrakis[[3,4-dihydroxy-5-(3,4,5-trihydroxybenzoyl)oxy-benzoyl]oxy]tetrahydropyran-2-yl]methoxycarbonyl]phenyl] 3,4,5-trihydroxybenzoate

> <PUBCHEM_IUPAC_CAS_NAME>
3,4,5-trihydroxybenzoic acid [2,3-dihydroxy-5-[oxo-[[(2R,3R,4S,5R,6S)-3,4,5,6-tetrakis[[3,4-dihydroxy-5-[oxo-(3,4,5-trihydroxyphenyl)methoxy]phenyl]-oxomethoxy]-2-oxanyl]methoxy]methyl]phenyl] ester

> <PUBCHEM_IUPAC_NAME_MARKUP>
[2,3-dihydroxy-5-[[(2<I>R</I>,3<I>R</I>,4<I>S</I>,5<I>R</I>,6<I>S</I>)-3,4,5,6-tetrakis[[3,4-dihydroxy-5-(3,4,5-trihydroxybenzoyl)oxybenzoyl]oxy]oxan-2-yl]methoxycarbonyl]phenyl] 3,4,5-trihydroxybenzoate

> <PUBCHEM_IUPAC_NAME>
[2,3-dihydroxy-5-[[(2R,3R,4S,5R,6S)-3,4,5,6-tetrakis[[3,4-dihydroxy-5-(3,4,5-trihydroxybenzoyl)oxybenzoyl]oxy]oxan-2-yl]methoxycarbonyl]phenyl] 3,4,5-trihydroxybenzoate

> <PUBCHEM_IUPAC_SYSTEMATIC_NAME>
[2,3-bis(oxidanyl)-5-[[(2R,3R,4S,5R,6S)-3,4,5,6-tetrakis[[3,4-bis(oxidanyl)-5-[3,4,5-tris(oxidanyl)phenyl]carbonyloxy-phenyl]carbonyloxy]oxan-2-yl]methoxycarbonyl]phenyl] 3,4,5-tris(oxidanyl)benzoate

> <PUBCHEM_IUPAC_TRADITIONAL_NAME>
3,4,5-trihydroxybenzoic acid [2,3-dihydroxy-5-[[(2R,3R,4S,5R,6S)-3,4,5,6-tetrakis[(3-galloyloxy-4,5-dihydroxy-benzoyl)oxy]tetrahydropyran-2-yl]methoxycarbonyl]phenyl] ester

> <PUBCHEM_IUPAC_INCHI>
InChI=1S/C76H52O46/c77-32-1-22(2-33(78)53(32)92)67(103)113-47-16-27(11-42(87)58(47)97)66(102)112-21-52-63(119-72(108)28-12-43(88)59(98)48(17-28)114-68(104)23-3-34(79)54(93)35(80)4-23)64(120-73(109)29-13-44(89)60(99)49(18-29)115-69(105)24-5-36(81)55(94)37(82)6-24)65(121-74(110)30-14-45(90)61(100)50(19-30)116-70(106)25-7-38(83)56(95)39(84)8-25)76(118-52)122-75(111)31-15-46(91)62(101)51(20-31)117-71(107)26-9-40(85)57(96)41(86)10-26/h1-20,52,63-65,76-101H,21H2/t52-,63-,64+,65-,76+/m1/s1

> <PUBCHEM_IUPAC_INCHIKEY>
LRBQNJMCXXYXIU-PPKXGCFTSA-N

> <PUBCHEM_XLOGP3_AA>
6.2

> <PUBCHEM_EXACT_MASS>
1700.172974

> <PUBCHEM_MOLECULAR_FORMULA>
C76H52O46

> <PUBCHEM_MOLECULAR_WEIGHT>
1701.2

> <PUBCHEM_OPENEYE_CAN_SMILES>
C1=C(C=C(C(=C1O)O)O)C(=O)OC2=CC(=CC(=C2O)O)C(=O)OCC3C(C(C(C(O3)OC(=O)C4=CC(=C(C(=C4)OC(=O)C5=CC(=C(C(=C5)O)O)O)O)O)OC(=O)C6=CC(=C(C(=C6)OC(=O)C7=CC(=C(C(=C7)O)O)O)O)O)OC(=O)C8=CC(=C(C(=C8)OC(=O)C9=CC(=C(C(=C9)O)O)O)O)O)OC(=O)C1=CC(=C(C(=C1)OC(=O)C1=CC(=C(C(=C1)O)O)O)O)O

> <PUBCHEM_OPENEYE_ISO_SMILES>
C1=C(C=C(C(=C1O)O)O)C(=O)OC2=CC(=CC(=C2O)O)C(=O)OC[C@@H]3[C@H]([C@@H]([C@H]([C@@H](O3)OC(=O)C4=CC(=C(C(=C4)OC(=O)C5=CC(=C(C(=C5)O)O)O)O)O)OC(=O)C6=CC(=C(C(=C6)OC(=O)C7=CC(=C(C(=C7)O)O)O)O)O)OC(=O)C8=CC(=C(C(=C8)OC(=O)C9=CC(=C(C(=C9)O)O)O)O)O)OC(=O)C1=CC(=C(C(=C1)OC(=O)C1=CC(=C(C(=C1)O)O)O)O)O

> <PUBCHEM_CACTVS_TPSA>
778

> <PUBCHEM_MONOISOTOPIC_WEIGHT>
1700.172974

> <PUBCHEM_TOTAL_CHARGE>
0

> <PUBCHEM_HEAVY_ATOM_COUNT>
122

> <PUBCHEM_ATOM_DEF_STEREO_COUNT>
5

> <PUBCHEM_ATOM_UDEF_STEREO_COUNT>
0

> <PUBCHEM_BOND_DEF_STEREO_COUNT>
0

> <PUBCHEM_BOND_UDEF_STEREO_COUNT>
0

> <PUBCHEM_ISOTOPIC_ATOM_COUNT>
0

> <PUBCHEM_COMPONENT_COUNT>
1

> <PUBCHEM_CACTVS_TAUTO_COUNT>
-1

> <PUBCHEM_COORDINATE_TYPE>
1
5
255

> <PUBCHEM_BONDANNOTATIONS>
100  109  8
101  108  8
102  111  8
103  110  8
104  117  8
105  116  8
106  114  8
107  114  8
108  115  8
109  115  8
110  118  8
111  118  8
112  121  8
113  120  8
116  119  8
117  119  8
120  122  8
121  122  8
47  2  5
48  3  6
49  4  6
51  5  5
50  52  5
57  63  8
57  65  8
58  64  8
58  66  8
59  67  8
59  68  8
61  69  8
61  70  8
62  77  8
62  78  8
63  71  8
64  72  8
65  73  8
66  74  8
67  75  8
68  76  8
69  81  8
70  82  8
71  79  8
72  80  8
73  79  8
74  80  8
75  83  8
76  83  8
77  85  8
78  86  8
81  84  8
82  84  8
85  87  8
86  87  8
92  98  8
92  99  8
93  100  8
93  101  8
95  102  8
95  103  8
96  104  8
96  105  8
97  112  8
97  113  8
98  107  8
99  106  8

$$$$
15559687
  -OEChem-04052116542D

 68 73  0     1  0  0  0  0  0999 V2000
    5.7243    0.6780    0.0000 O   0  0  0  0  0  0  0  0  0  0  0  0
    7.5098    0.0120    0.0000 O   0  0  0  0  0  0  0  0  0  0  0  0
    6.3671   -2.0880    0.0000 O   0  0  0  0  0  0  0  0  0  0  0  0
    6.8671    2.7780    0.0000 O   0  0  0  0  0  0  0  0  0  0  0  0
    4.6187    0.9466    0.0000 O   0  0  0  0  0  0  0  0  0  0  0  0
    8.6155   -0.2566    0.0000 O   0  0  0  0  0  0  0  0  0  0  0  0
    2.8369   -2.1122    0.0000 O   0  0  0  0  0  0  0  0  0  0  0  0
   10.3972    2.8022    0.0000 O   0  0  0  0  0  0  0  0  0  0  0  0
    8.9651   -4.5880    0.0000 O   0  0  0  0  0  0  0  0  0  0  0  0
    2.5369    2.2780    0.0000 O   0  0  0  0  0  0  0  0  0  0  0  0
   10.6972   -3.5880    0.0000 O   0  0  0  0  0  0  0  0  0  0  0  0
    2.5369    4.2780    0.0000 O   0  0  0  0  0  0  0  0  0  0  0  0
    6.3671   -0.0880    0.0000 C   0  0  3  0  0  0  0  0  0  0  0  0
    6.8671    0.7780    0.0000 C   0  0  3  0  0  0  0  0  0  0  0  0
    7.2331   -0.5880    0.0000 C   0  0  0  0  0  0  0  0  0  0  0  0
    6.0010    1.2780    0.0000 C   0  0  0  0  0  0  0  0  0  0  0  0
    5.5010   -0.5880    0.0000 C   0  0  0  0  0  0  0  0  0  0  0  0
    7.7331    1.2780    0.0000 C   0  0  0  0  0  0  0  0  0  0  0  0
    7.2331   -1.5880    0.0000 C   0  0  3  0  0  0  0  0  0  0  0  0
    6.0010    2.2780    0.0000 C   0  0  3  0  0  0  0  0  0  0  0  0
    5.5010   -1.5880    0.0000 C   0  0  0  0  0  0  0  0  0  0  0  0
    7.7331    2.2780    0.0000 C   0  0  0  0  0  0  0  0  0  0  0  0
    4.6071   -0.0534    0.0000 C   0  0  0  0  0  0  0  0  0  0  0  0
    8.6270    0.7434    0.0000 C   0  0  0  0  0  0  0  0  0  0  0  0
    8.0991   -2.0880    0.0000 C   0  0  0  0  0  0  0  0  0  0  0  0
    5.1350    2.7780    0.0000 C   0  0  0  0  0  0  0  0  0  0  0  0
    4.6071   -2.1227    0.0000 C   0  0  0  0  0  0  0  0  0  0  0  0
    8.6270    2.8127    0.0000 C   0  0  0  0  0  0  0  0  0  0  0  0
    3.7010   -0.5672    0.0000 C   0  0  0  0  0  0  0  0  0  0  0  0
    9.5331    1.2572    0.0000 C   0  0  0  0  0  0  0  0  0  0  0  0
    3.7010   -1.6088    0.0000 C   0  0  0  0  0  0  0  0  0  0  0  0
    9.5331    2.2988    0.0000 C   0  0  0  0  0  0  0  0  0  0  0  0
    8.0991   -3.0880    0.0000 C   0  0  0  0  0  0  0  0  0  0  0  0
    4.2690    2.2780    0.0000 C   0  0  0  0  0  0  0  0  0  0  0  0
    8.9651   -1.5880    0.0000 C   0  0  0  0  0  0  0  0  0  0  0  0
    5.1350    3.7780    0.0000 C   0  0  0  0  0  0  0  0  0  0  0  0
    8.9651   -3.5880    0.0000 C   0  0  0  0  0  0  0  0  0  0  0  0
    3.4030    2.7780    0.0000 C   0  0  0  0  0  0  0  0  0  0  0  0
    9.8312   -2.0880    0.0000 C   0  0  0  0  0  0  0  0  0  0  0  0
    4.2690    4.2780    0.0000 C   0  0  0  0  0  0  0  0  0  0  0  0
    9.8312   -3.0880    0.0000 C   0  0  0  0  0  0  0  0  0  0  0  0
    3.4030    3.7780    0.0000 C   0  0  0  0  0  0  0  0  0  0  0  0
    7.8437   -0.6957    0.0000 H   0  0  0  0  0  0  0  0  0  0  0  0
    7.4451   -0.0054    0.0000 H   0  0  0  0  0  0  0  0  0  0  0  0
    5.3905    1.3857    0.0000 H   0  0  0  0  0  0  0  0  0  0  0  0
    5.7890    0.6954    0.0000 H   0  0  0  0  0  0  0  0  0  0  0  0
    7.2331   -2.2080    0.0000 H   0  0  0  0  0  0  0  0  0  0  0  0
    5.4641    1.9680    0.0000 H   0  0  0  0  0  0  0  0  0  0  0  0
    5.1137    0.5704    0.0000 H   0  0  0  0  0  0  0  0  0  0  0  0
    8.1204    0.1196    0.0000 H   0  0  0  0  0  0  0  0  0  0  0  0
    4.6143   -2.7426    0.0000 H   0  0  0  0  0  0  0  0  0  0  0  0
    8.6199    3.4326    0.0000 H   0  0  0  0  0  0  0  0  0  0  0  0
    3.1653   -0.2551    0.0000 H   0  0  0  0  0  0  0  0  0  0  0  0
   10.0688    0.9451    0.0000 H   0  0  0  0  0  0  0  0  0  0  0  0
    7.5622   -3.3980    0.0000 H   0  0  0  0  0  0  0  0  0  0  0  0
    4.2690    1.6580    0.0000 H   0  0  0  0  0  0  0  0  0  0  0  0
    8.9651   -0.9680    0.0000 H   0  0  0  0  0  0  0  0  0  0  0  0
    5.6720    4.0880    0.0000 H   0  0  0  0  0  0  0  0  0  0  0  0
    4.0853    1.2628    0.0000 H   0  0  0  0  0  0  0  0  0  0  0  0
    9.1488   -0.5728    0.0000 H   0  0  0  0  0  0  0  0  0  0  0  0
   10.3681   -1.7780    0.0000 H   0  0  0  0  0  0  0  0  0  0  0  0
    4.2690    4.8980    0.0000 H   0  0  0  0  0  0  0  0  0  0  0  0
    2.8393   -2.7322    0.0000 H   0  0  0  0  0  0  0  0  0  0  0  0
   10.3948    3.4222    0.0000 H   0  0  0  0  0  0  0  0  0  0  0  0
    8.4282   -4.8980    0.0000 H   0  0  0  0  0  0  0  0  0  0  0  0
    2.0000    2.5880    0.0000 H   0  0  0  0  0  0  0  0  0  0  0  0
   10.6972   -4.2080    0.0000 H   0  0  0  0  0  0  0  0  0  0  0  0
    2.5369    4.8980    0.0000 H   0  0  0  0  0  0  0  0  0  0  0  0
  1 13  1  0  0  0  0
  1 49  1  0  0  0  0
  2 14  1  0  0  0  0
  2 50  1  0  0  0  0
  3 19  1  0  0  0  0
  3 21  1  0  0  0  0
  4 20  1  0  0  0  0
  4 22  1  0  0  0  0
  5 23  1  0  0  0  0
  5 59  1  0  0  0  0
  6 24  1  0  0  0  0
  6 60  1  0  0  0  0
  7 31  1  0  0  0  0
  7 63  1  0  0  0  0
  8 32  1  0  0  0  0
  8 64  1  0  0  0  0
  9 37  1  0  0  0  0
  9 65  1  0  0  0  0
 10 38  1  0  0  0  0
 10 66  1  0  0  0  0
 11 41  1  0  0  0  0
 11 67  1  0  0  0  0
 12 42  1  0  0  0  0
 12 68  1  0  0  0  0
 13 14  1  0  0  0  0
 13 15  1  0  0  0  0
 13 17  1  0  0  0  0
 14 16  1  0  0  0  0
 14 18  1  0  0  0  0
 15 19  1  0  0  0  0
 15 43  1  0  0  0  0
 15 44  1  0  0  0  0
 16 20  1  0  0  0  0
 16 45  1  0  0  0  0
 16 46  1  0  0  0  0
 17 21  1  0  0  0  0
 17 23  2  0  0  0  0
 18 22  1  0  0  0  0
 18 24  2  0  0  0  0
 19 25  1  0  0  0  0
 19 47  1  0  0  0  0
 20 26  1  0  0  0  0
 20 48  1  0  0  0  0
 21 27  2  0  0  0  0
 22 28  2  0  0  0  0
 23 29  1  0  0  0  0
 24 30  1  0  0  0  0
 25 33  2  0  0  0  0
 25 35  1  0  0  0  0
 26 34  2  0  0  0  0
 26 36  1  0  0  0  0
 27 31  1  0  0  0  0
 27 51  1  0  0  0  0
 28 32  1  0  0  0  0
 28 52  1  0  0  0  0
 29 31  2  0  0  0  0
 29 53  1  0  0  0  0
 30 32  2  0  0  0  0
 30 54  1  0  0  0  0
 33 37  1  0  0  0  0
 33 55  1  0  0  0  0
 34 38  1  0  0  0  0
 34 56  1  0  0  0  0
 35 39  2  0  0  0  0
 35 57  1  0  0  0  0
 36 40  2  0  0  0  0
 36 58  1  0  0  0  0
 37 41  2  0  0  0  0
 38 42  2  0  0  0  0
 39 41  1  0  0  0  0
 39 61  1  0  0  0  0
 40 42  1  0  0  0  0
 40 62  1  0  0  0  0
M  END
> <PUBCHEM_COMPOUND_CID>
15559687

> <PUBCHEM_COMPOUND_CANONICALIZED>
1

> <PUBCHEM_CACTVS_COMPLEXITY>
881

> <PUBCHEM_CACTVS_HBOND_ACCEPTOR>
12

> <PUBCHEM_CACTVS_HBOND_DONOR>
10

> <PUBCHEM_CACTVS_ROTATABLE_BOND>
3

> <PUBCHEM_CACTVS_SUBSKEYS>
AAADceB4PAAAAAAAAAAAAAAAAAAAAAAAAAA0aMGCAAAAAACRVAAAGgAACAAADFSgmAIwBoAABgCAAiBCAAACCAAgIAAIiAAGiIgNJyKGMRqCeCGlwBUJuAfA4PwOoAABCAAIQABAAAIQABCAAAAAAAAAAA==

> <PUBCHEM_IUPAC_OPENEYE_NAME>
2-(3,4-dihydroxyphenyl)-4-[2-(3,4-dihydroxyphenyl)-4,5,7-trihydroxy-chroman-4-yl]chromane-4,5,7-triol

> <PUBCHEM_IUPAC_CAS_NAME>
2-(3,4-dihydroxyphenyl)-4-[2-(3,4-dihydroxyphenyl)-4,5,7-trihydroxy-3,4-dihydro-2H-1-benzopyran-4-yl]-3,4-dihydro-2H-1-benzopyran-4,5,7-triol

> <PUBCHEM_IUPAC_NAME_MARKUP>
2-(3,4-dihydroxyphenyl)-4-[2-(3,4-dihydroxyphenyl)-4,5,7-trihydroxy-2,3-dihydrochromen-4-yl]-2,3-dihydrochromene-4,5,7-triol

> <PUBCHEM_IUPAC_NAME>
2-(3,4-dihydroxyphenyl)-4-[2-(3,4-dihydroxyphenyl)-4,5,7-trihydroxy-2,3-dihydrochromen-4-yl]-2,3-dihydrochromene-4,5,7-triol

> <PUBCHEM_IUPAC_SYSTEMATIC_NAME>
2-[3,4-bis(oxidanyl)phenyl]-4-[2-[3,4-bis(oxidanyl)phenyl]-4,5,7-tris(oxidanyl)-2,3-dihydrochromen-4-yl]-2,3-dihydrochromene-4,5,7-triol

> <PUBCHEM_IUPAC_TRADITIONAL_NAME>
2-(3,4-dihydroxyphenyl)-4-[2-(3,4-dihydroxyphenyl)-4,5,7-trihydroxy-chroman-4-yl]chroman-4,5,7-triol

> <PUBCHEM_IUPAC_INCHI>
InChI=1S/C30H26O12/c31-15-7-21(37)27-23(9-15)41-25(13-1-3-17(33)19(35)5-13)11-29(27,39)30(40)12-26(14-2-4-18(34)20(36)6-14)42-24-10-16(32)8-22(38)28(24)30/h1-10,25-26,31-40H,11-12H2

> <PUBCHEM_IUPAC_INCHIKEY>
WPXIGJGAMWJQGL-UHFFFAOYSA-N

> <PUBCHEM_XLOGP3_AA>
2

> <PUBCHEM_EXACT_MASS>
578.142426

> <PUBCHEM_MOLECULAR_FORMULA>
C30H26O12

> <PUBCHEM_MOLECULAR_WEIGHT>
578.5

> <PUBCHEM_OPENEYE_CAN_SMILES>
C1C(OC2=CC(=CC(=C2C1(C3(CC(OC4=CC(=CC(=C43)O)O)C5=CC(=C(C=C5)O)O)O)O)O)O)C6=CC(=C(C=C6)O)O

> <PUBCHEM_OPENEYE_ISO_SMILES>
C1C(OC2=CC(=CC(=C2C1(C3(CC(OC4=CC(=CC(=C43)O)O)C5=CC(=C(C=C5)O)O)O)O)O)O)C6=CC(=C(C=C6)O)O

> <PUBCHEM_CACTVS_TPSA>
221

> <PUBCHEM_MONOISOTOPIC_WEIGHT>
578.142426

> <PUBCHEM_TOTAL_CHARGE>
0

> <PUBCHEM_HEAVY_ATOM_COUNT>
42

> <PUBCHEM_ATOM_DEF_STEREO_COUNT>
0

> <PUBCHEM_ATOM_UDEF_STEREO_COUNT>
4

> <PUBCHEM_BOND_DEF_STEREO_COUNT>
0

> <PUBCHEM_BOND_UDEF_STEREO_COUNT>
0

> <PUBCHEM_ISOTOPIC_ATOM_COUNT>
0

> <PUBCHEM_COMPONENT_COUNT>
1

> <PUBCHEM_CACTVS_TAUTO_COUNT>
-1

> <PUBCHEM_COORDINATE_TYPE>
1
5
255

> <PUBCHEM_BONDANNOTATIONS>
13  1  3
17  21  8
17  23  8
18  22  8
18  24  8
19  25  3
14  2  3
20  26  3
21  27  8
22  28  8
23  29  8
24  30  8
25  33  8
25  35  8
26  34  8
26  36  8
27  31  8
28  32  8
29  31  8
30  32  8
33  37  8
34  38  8
35  39  8
36  40  8
37  41  8
38  42  8
39  41  8
40  42  8

$$$$
11480084
  -OEChem-04052116542D

 90 96  0     1  0  0  0  0  0999 V2000
    7.7331   -3.9635    0.0000 O   0  0  0  0  0  0  0  0  0  0  0  0
   12.3658    1.0284    0.0000 O   0  0  0  0  0  0  0  0  0  0  0  0
    9.4651   -3.9635    0.0000 O   0  0  0  0  0  0  0  0  0  0  0  0
    6.0010   -2.9635    0.0000 O   0  0  0  0  0  0  0  0  0  0  0  0
    9.4929   -0.8556    0.0000 O   0  0  0  0  0  0  0  0  0  0  0  0
    6.0010   -5.9635    0.0000 O   0  0  0  0  0  0  0  0  0  0  0  0
    7.7331   -6.9635    0.0000 O   0  0  0  0  0  0  0  0  0  0  0  0
   14.4485    2.7604    0.0000 O   0  0  0  0  0  0  0  0  0  0  0  0
    9.4651   -5.9635    0.0000 O   0  0  0  0  0  0  0  0  0  0  0  0
    4.2690   -2.9635    0.0000 O   0  0  0  0  0  0  0  0  0  0  0  0
    6.0010   -0.9635    0.0000 O   0  0  0  0  0  0  0  0  0  0  0  0
    4.2690    0.0365    0.0000 O   0  0  0  0  0  0  0  0  0  0  0  0
   10.8859    3.6380    0.0000 O   0  0  0  0  0  0  0  0  0  0  0  0
    2.5369   -0.9635    0.0000 O   0  0  0  0  0  0  0  0  0  0  0  0
   12.3680    6.4055    0.0000 O   0  0  0  0  0  0  0  0  0  0  0  0
   14.4596    6.4055    0.0000 O   0  0  0  0  0  0  0  0  0  0  0  0
    6.8671   -4.4635    0.0000 C   0  0  1  0  0  0  0  0  0  0  0  0
    6.8671   -5.4635    0.0000 C   0  0  2  0  0  0  0  0  0  0  0  0
    7.7331   -5.9635    0.0000 C   0  0  1  0  0  0  0  0  0  0  0  0
    8.5991   -5.4635    0.0000 C   0  0  2  0  0  0  0  0  0  0  0  0
    8.5991   -4.4635    0.0000 C   0  0  1  0  0  0  0  0  0  0  0  0
   12.3791    2.7604    0.0000 C   0  0  1  0  0  0  0  0  0  0  0  0
   12.8725    1.8906    0.0000 C   0  0  1  0  0  0  0  0  0  0  0  0
    6.0010   -3.9635    0.0000 C   0  0  0  0  0  0  0  0  0  0  0  0
   10.8520    0.1301    0.0000 C   0  0  0  0  0  0  0  0  0  0  0  0
   10.3312   -1.4635    0.0000 C   0  0  2  0  0  0  0  0  0  0  0  0
   11.1694   -0.8556    0.0000 C   0  0  0  0  0  0  0  0  0  0  0  0
   11.3658    1.0361    0.0000 C   0  0  0  0  0  0  0  0  0  0  0  0
   10.8725    1.9060    0.0000 C   0  0  0  0  0  0  0  0  0  0  0  0
   11.3792    2.7681    0.0000 C   0  0  0  0  0  0  0  0  0  0  0  0
   12.8930    3.6665    0.0000 C   0  0  0  0  0  0  0  0  0  0  0  0
   13.9138    1.8665    0.0000 C   0  0  0  0  0  0  0  0  0  0  0  0
    5.1350   -2.4635    0.0000 C   0  0  2  0  0  0  0  0  0  0  0  0
    5.1350   -1.4635    0.0000 C   0  0  1  0  0  0  0  0  0  0  0  0
    9.8104    0.1301    0.0000 C   0  0  0  0  0  0  0  0  0  0  0  0
    4.2690   -0.9635    0.0000 C   0  0  2  0  0  0  0  0  0  0  0  0
   10.3312   -2.4635    0.0000 C   0  0  0  0  0  0  0  0  0  0  0  0
    9.4651   -2.9635    0.0000 C   0  0  0  0  0  0  0  0  0  0  0  0
    3.4030   -1.4635    0.0000 C   0  0  2  0  0  0  0  0  0  0  0  0
   13.9346    3.6665    0.0000 C   0  0  0  0  0  0  0  0  0  0  0  0
    9.8312    1.9301    0.0000 C   0  0  0  0  0  0  0  0  0  0  0  0
    3.4030   -2.4635    0.0000 C   0  0  0  0  0  0  0  0  0  0  0  0
    9.2965    1.0361    0.0000 C   0  0  0  0  0  0  0  0  0  0  0  0
   12.3361    4.5976    0.0000 C   0  0  0  0  0  0  0  0  0  0  0  0
   14.4915    4.5976    0.0000 C   0  0  0  0  0  0  0  0  0  0  0  0
   12.8713    5.5414    0.0000 C   0  0  0  0  0  0  0  0  0  0  0  0
   11.1972   -2.9635    0.0000 C   0  0  0  0  0  0  0  0  0  0  0  0
   13.9563    5.5414    0.0000 C   0  0  0  0  0  0  0  0  0  0  0  0
   12.8646    7.2735    0.0000 C   0  0  0  0  0  0  0  0  0  0  0  0
   15.4596    6.4017    0.0000 C   0  0  0  0  0  0  0  0  0  0  0  0
    6.8671   -3.8435    0.0000 H   0  0  0  0  0  0  0  0  0  0  0  0
    6.8671   -6.0835    0.0000 H   0  0  0  0  0  0  0  0  0  0  0  0
    7.1962   -6.2735    0.0000 H   0  0  0  0  0  0  0  0  0  0  0  0
    8.5991   -6.0835    0.0000 H   0  0  0  0  0  0  0  0  0  0  0  0
    8.5991   -3.8435    0.0000 H   0  0  0  0  0  0  0  0  0  0  0  0
   11.9541    3.4965    0.0000 H   0  0  0  0  0  0  0  0  0  0  0  0
   13.2861    1.1480    0.0000 H   0  0  0  0  0  0  0  0  0  0  0  0
    5.3905   -3.8558    0.0000 H   0  0  0  0  0  0  0  0  0  0  0  0
    5.7890   -4.5461    0.0000 H   0  0  0  0  0  0  0  0  0  0  0  0
    9.7789   -1.7452    0.0000 H   0  0  0  0  0  0  0  0  0  0  0  0
   11.4786   -1.3929    0.0000 H   0  0  0  0  0  0  0  0  0  0  0  0
   11.7363   -0.6045    0.0000 H   0  0  0  0  0  0  0  0  0  0  0  0
   13.7936    1.2582    0.0000 H   0  0  0  0  0  0  0  0  0  0  0  0
   14.4925    1.6440    0.0000 H   0  0  0  0  0  0  0  0  0  0  0  0
    5.6720   -2.1535    0.0000 H   0  0  0  0  0  0  0  0  0  0  0  0
    5.1350   -0.8435    0.0000 H   0  0  0  0  0  0  0  0  0  0  0  0
    3.7320   -0.6535    0.0000 H   0  0  0  0  0  0  0  0  0  0  0  0
    9.2531   -2.3808    0.0000 H   0  0  0  0  0  0  0  0  0  0  0  0
    8.8546   -3.0711    0.0000 H   0  0  0  0  0  0  0  0  0  0  0  0
    3.4030   -0.8435    0.0000 H   0  0  0  0  0  0  0  0  0  0  0  0
    9.5316    2.4729    0.0000 H   0  0  0  0  0  0  0  0  0  0  0  0
    2.7924   -2.3558    0.0000 H   0  0  0  0  0  0  0  0  0  0  0  0
    3.1909   -3.0461    0.0000 H   0  0  0  0  0  0  0  0  0  0  0  0
    8.6765    1.0433    0.0000 H   0  0  0  0  0  0  0  0  0  0  0  0
    5.4641   -5.6535    0.0000 H   0  0  0  0  0  0  0  0  0  0  0  0
    7.1962   -7.2735    0.0000 H   0  0  0  0  0  0  0  0  0  0  0  0
   10.0021   -5.6535    0.0000 H   0  0  0  0  0  0  0  0  0  0  0  0
   11.7161    4.5905    0.0000 H   0  0  0  0  0  0  0  0  0  0  0  0
   15.1115    4.5905    0.0000 H   0  0  0  0  0  0  0  0  0  0  0  0
   11.1972   -3.5835    0.0000 H   0  0  0  0  0  0  0  0  0  0  0  0
   11.7341   -2.6535    0.0000 H   0  0  0  0  0  0  0  0  0  0  0  0
    6.0010   -0.3435    0.0000 H   0  0  0  0  0  0  0  0  0  0  0  0
    3.7320    0.3465    0.0000 H   0  0  0  0  0  0  0  0  0  0  0  0
    2.0000   -1.2735    0.0000 H   0  0  0  0  0  0  0  0  0  0  0  0
   13.4028    6.9655    0.0000 H   0  0  0  0  0  0  0  0  0  0  0  0
   13.1726    7.8116    0.0000 H   0  0  0  0  0  0  0  0  0  0  0  0
   12.3265    7.5814    0.0000 H   0  0  0  0  0  0  0  0  0  0  0  0
   15.4572    5.7817    0.0000 H   0  0  0  0  0  0  0  0  0  0  0  0
   16.0796    6.3993    0.0000 H   0  0  0  0  0  0  0  0  0  0  0  0
   15.4620    7.0217    0.0000 H   0  0  0  0  0  0  0  0  0  0  0  0
  1 17  1  0  0  0  0
  1 21  1  0  0  0  0
  2 23  1  0  0  0  0
  2 28  1  0  0  0  0
 21  3  1  1  0  0  0
  3 38  1  0  0  0  0
  4 24  1  0  0  0  0
 33  4  1  6  0  0  0
  5 26  1  0  0  0  0
  5 35  1  0  0  0  0
 18  6  1  6  0  0  0
  6 75  1  0  0  0  0
 19  7  1  1  0  0  0
  7 76  1  0  0  0  0
  8 32  1  0  0  0  0
  8 40  1  0  0  0  0
 20  9  1  6  0  0  0
  9 77  1  0  0  0  0
 10 33  1  0  0  0  0
 10 42  1  0  0  0  0
 34 11  1  1  0  0  0
 11 82  1  0  0  0  0
 36 12  1  6  0  0  0
 12 83  1  0  0  0  0
 13 30  2  0  0  0  0
 39 14  1  6  0  0  0
 14 84  1  0  0  0  0
 15 46  1  0  0  0  0
 15 49  1  0  0  0  0
 16 48  1  0  0  0  0
 16 50  1  0  0  0  0
 17 18  1  0  0  0  0
 17 24  1  1  0  0  0
 17 51  1  0  0  0  0
 18 19  1  0  0  0  0
 18 52  1  0  0  0  0
 19 20  1  0  0  0  0
 19 53  1  0  0  0  0
 20 21  1  0  0  0  0
 20 54  1  0  0  0  0
 21 55  1  0  0  0  0
 22 23  1  0  0  0  0
 22 30  1  0  0  0  0
 22 31  1  0  0  0  0
 22 56  1  6  0  0  0
 23 32  1  0  0  0  0
 23 57  1  6  0  0  0
 24 58  1  0  0  0  0
 24 59  1  0  0  0  0
 25 27  1  0  0  0  0
 25 28  1  0  0  0  0
 25 35  2  0  0  0  0
 26 27  1  0  0  0  0
 26 37  1  6  0  0  0
 26 60  1  0  0  0  0
 27 61  1  0  0  0  0
 27 62  1  0  0  0  0
 28 29  2  0  0  0  0
 29 30  1  0  0  0  0
 29 41  1  0  0  0  0
 31 40  1  0  0  0  0
 31 44  2  0  0  0  0
 32 63  1  0  0  0  0
 32 64  1  0  0  0  0
 33 34  1  0  0  0  0
 33 65  1  0  0  0  0
 34 36  1  0  0  0  0
 34 66  1  0  0  0  0
 35 43  1  0  0  0  0
 36 39  1  0  0  0  0
 36 67  1  0  0  0  0
 37 38  1  0  0  0  0
 37 47  2  0  0  0  0
 38 68  1  0  0  0  0
 38 69  1  0  0  0  0
 39 42  1  0  0  0  0
 39 70  1  0  0  0  0
 40 45  2  0  0  0  0
 41 43  2  0  0  0  0
 41 71  1  0  0  0  0
 42 72  1  0  0  0  0
 42 73  1  0  0  0  0
 43 74  1  0  0  0  0
 44 46  1  0  0  0  0
 44 78  1  0  0  0  0
 45 48  1  0  0  0  0
 45 79  1  0  0  0  0
 46 48  2  0  0  0  0
 47 80  1  0  0  0  0
 47 81  1  0  0  0  0
 49 85  1  0  0  0  0
 49 86  1  0  0  0  0
 49 87  1  0  0  0  0
 50 88  1  0  0  0  0
 50 89  1  0  0  0  0
 50 90  1  0  0  0  0
M  END
> <PUBCHEM_COMPOUND_CID>
11480084

> <PUBCHEM_COMPOUND_CANONICALIZED>
1

> <PUBCHEM_CACTVS_COMPLEXITY>
1210

> <PUBCHEM_CACTVS_HBOND_ACCEPTOR>
16

> <PUBCHEM_CACTVS_HBOND_DONOR>
6

> <PUBCHEM_CACTVS_ROTATABLE_BOND>
9

> <PUBCHEM_CACTVS_SUBSKEYS>
AAADcfB8PgAAAAAAAAAAAAAAAAAAASAAAAA0aJEiAAAAAEiRQAAAGgAACAAADRSwmAMyDoAABgCIAqBSAAACCAAkIAAIiAEGiMgdNzaENRqieWKl4BUPqYfK7PzOoQADCAAIQABCAAYQABCAAAAAAAAAAA==

> <PUBCHEM_IUPAC_OPENEYE_NAME>
(1S,6R,13S)-16,17-dimethoxy-6-[1-[[(2R,3R,4S,5S,6R)-3,4,5-trihydroxy-6-[[(2S,3R,4S,5S)-3,4,5-trihydroxytetrahydropyran-2-yl]oxymethyl]tetrahydropyran-2-yl]oxymethyl]vinyl]-2,7,20-trioxapentacyclo[11.8.0.03,11.04,8.014,19]henicosa-3(11),4(8),9,14,16,18-hexaen-12-one

> <PUBCHEM_IUPAC_CAS_NAME>
(1S,6R,13S)-16,17-dimethoxy-6-[3-[[(2R,3R,4S,5S,6R)-3,4,5-trihydroxy-6-[[(2S,3R,4S,5S)-3,4,5-trihydroxy-2-oxanyl]oxymethyl]-2-oxanyl]oxy]prop-1-en-2-yl]-2,7,20-trioxapentacyclo[11.8.0.03,11.04,8.014,19]heneicosa-3(11),4(8),9,14,16,18-hexaen-12-one

> <PUBCHEM_IUPAC_NAME_MARKUP>
(1<I>S</I>,6<I>R</I>,13<I>S</I>)-16,17-dimethoxy-6-[3-[(2<I>R</I>,3<I>R</I>,4<I>S</I>,5<I>S</I>,6<I>R</I>)-3,4,5-trihydroxy-6-[[(2<I>S</I>,3<I>R</I>,4<I>S</I>,5<I>S</I>)-3,4,5-trihydroxyoxan-2-yl]oxymethyl]oxan-2-yl]oxyprop-1-en-2-yl]-2,7,20-trioxapentacyclo[11.8.0.0<SUP>3,11</SUP>.0<SUP>4,8</SUP>.0<SUP>14,19</SUP>]henicosa-3(11),4(8),9,14,16,18-hexaen-12-one

> <PUBCHEM_IUPAC_NAME>
(1S,6R,13S)-16,17-dimethoxy-6-[3-[(2R,3R,4S,5S,6R)-3,4,5-trihydroxy-6-[[(2S,3R,4S,5S)-3,4,5-trihydroxyoxan-2-yl]oxymethyl]oxan-2-yl]oxyprop-1-en-2-yl]-2,7,20-trioxapentacyclo[11.8.0.03,11.04,8.014,19]henicosa-3(11),4(8),9,14,16,18-hexaen-12-one

> <PUBCHEM_IUPAC_SYSTEMATIC_NAME>
(1S,6R,13S)-16,17-dimethoxy-6-[3-[(2R,3R,4S,5S,6R)-3,4,5-tris(oxidanyl)-6-[[(2S,3R,4S,5S)-3,4,5-tris(oxidanyl)oxan-2-yl]oxymethyl]oxan-2-yl]oxyprop-1-en-2-yl]-2,7,20-trioxapentacyclo[11.8.0.03,11.04,8.014,19]henicosa-3(11),4(8),9,14,16,18-hexaen-12-one

> <PUBCHEM_IUPAC_TRADITIONAL_NAME>
(1S,6R,13S)-16,17-dimethoxy-6-[1-[[(2R,3R,4S,5S,6R)-3,4,5-trihydroxy-6-[[(2S,3R,4S,5S)-3,4,5-trihydroxytetrahydropyran-2-yl]oxymethyl]tetrahydropyran-2-yl]oxymethyl]vinyl]-2,7,20-trioxapentacyclo[11.8.0.03,11.04,8.014,19]heneicosa-3(11),4(8),9,14,16,18-hexaen-12-one

> <PUBCHEM_IUPAC_INCHI>
InChI=1S/C34H40O16/c1-13(9-45-34-31(41)29(39)28(38)24(50-34)12-47-33-30(40)27(37)17(35)10-46-33)19-7-16-18(48-19)5-4-14-26(36)25-15-6-21(42-2)22(43-3)8-20(15)44-11-23(25)49-32(14)16/h4-6,8,17,19,23-25,27-31,33-35,37-41H,1,7,9-12H2,2-3H3/t17-,19+,23+,24+,25-,27-,28+,29-,30+,31+,33-,34+/m0/s1

> <PUBCHEM_IUPAC_INCHIKEY>
CMQOKNQYLSMKJC-ABEMJNOASA-N

> <PUBCHEM_XLOGP3>
-0.8

> <PUBCHEM_EXACT_MASS>
704.231635

> <PUBCHEM_MOLECULAR_FORMULA>
C34H40O16

> <PUBCHEM_MOLECULAR_WEIGHT>
704.7

> <PUBCHEM_OPENEYE_CAN_SMILES>
COC1=C(C=C2C(=C1)C3C(CO2)OC4=C(C3=O)C=CC5=C4CC(O5)C(=C)COC6C(C(C(C(O6)COC7C(C(C(CO7)O)O)O)O)O)O)OC

> <PUBCHEM_OPENEYE_ISO_SMILES>
COC1=C(C=C2C(=C1)[C@H]3[C@@H](CO2)OC4=C(C3=O)C=CC5=C4C[C@@H](O5)C(=C)CO[C@H]6[C@@H]([C@H]([C@@H]([C@H](O6)CO[C@H]7[C@@H]([C@H]([C@H](CO7)O)O)O)O)O)O)OC

> <PUBCHEM_CACTVS_TPSA>
222

> <PUBCHEM_MONOISOTOPIC_WEIGHT>
704.231635

> <PUBCHEM_TOTAL_CHARGE>
0

> <PUBCHEM_HEAVY_ATOM_COUNT>
50

> <PUBCHEM_ATOM_DEF_STEREO_COUNT>
12

> <PUBCHEM_ATOM_UDEF_STEREO_COUNT>
0

> <PUBCHEM_BOND_DEF_STEREO_COUNT>
0

> <PUBCHEM_BOND_UDEF_STEREO_COUNT>
0

> <PUBCHEM_ISOTOPIC_ATOM_COUNT>
0

> <PUBCHEM_COMPONENT_COUNT>
1

> <PUBCHEM_CACTVS_TAUTO_COUNT>
-1

> <PUBCHEM_COORDINATE_TYPE>
1
5
255

> <PUBCHEM_BONDANNOTATIONS>
34  11  5
36  12  6
39  14  6
17  24  5
22  56  6
23  57  6
25  28  8
25  35  8
26  37  6
28  29  8
29  41  8
21  3  5
31  40  8
31  44  8
35  43  8
33  4  6
40  45  8
41  43  8
44  46  8
45  48  8
46  48  8
18  6  6
19  7  5
20  9  6

$$$$
10342859
  -OEChem-04052116542D

 54 59  0     1  0  0  0  0  0999 V2000
    8.6975   -2.5900    0.0000 O   0  0  0  0  0  0  0  0  0  0  0  0
    5.9174    0.5655    0.0000 O   0  0  0  0  0  0  0  0  0  0  0  0
    6.8153   -4.0106    0.0000 O   0  0  0  0  0  0  0  0  0  0  0  0
    5.0572   -0.9382    0.0000 O   0  0  0  0  0  0  0  0  0  0  0  0
    8.5812    2.0901    0.0000 O   0  0  0  0  0  0  0  0  0  0  0  0
    3.9787    3.7926    0.0000 O   0  0  0  0  0  0  0  0  0  0  0  0
    7.6999    3.7027    0.0000 O   0  0  0  0  0  0  0  0  0  0  0  0
    8.5594   -0.9414    0.0000 C   0  0  3  0  0  0  0  0  0  0  0  0
    9.1774   -1.7197    0.0000 C   0  0  0  0  0  0  0  0  0  0  0  0
    7.6934   -1.4414    0.0000 C   0  0  0  0  0  0  0  0  0  0  0  0
    8.5594    0.0586    0.0000 C   0  0  0  0  0  0  0  0  0  0  0  0
    7.7095   -2.4829    0.0000 C   0  0  0  0  0  0  0  0  0  0  0  0
    6.8274   -0.9414    0.0000 C   0  0  0  0  0  0  0  0  0  0  0  0
    7.6934    0.5586    0.0000 C   0  0  0  0  0  0  0  0  0  0  0  0
   10.0326   -2.2379    0.0000 C   0  0  0  0  0  0  0  0  0  0  0  0
    9.9345   -1.0665    0.0000 C   0  0  0  0  0  0  0  0  0  0  0  0
    6.8274    0.0586    0.0000 C   0  0  0  0  0  0  0  0  0  0  0  0
    6.8114   -3.0106    0.0000 C   0  0  0  0  0  0  0  0  0  0  0  0
    5.9174   -1.4482    0.0000 C   0  0  0  0  0  0  0  0  0  0  0  0
    7.7095    1.6002    0.0000 C   0  0  0  0  0  0  0  0  0  0  0  0
    5.9094   -2.4898    0.0000 C   0  0  0  0  0  0  0  0  0  0  0  0
    6.8114    2.1279    0.0000 C   0  0  0  0  0  0  0  0  0  0  0  0
    5.9094    1.6071    0.0000 C   0  0  0  0  0  0  0  0  0  0  0  0
    4.9615    2.1350    0.0000 C   0  0  0  0  0  0  0  0  0  0  0  0
    6.8282    3.2128    0.0000 C   0  0  0  0  0  0  0  0  0  0  0  0
    4.9531    3.2200    0.0000 C   0  0  0  0  0  0  0  0  0  0  0  0
    3.0000    3.2275    0.0000 C   0  0  0  0  0  0  0  0  0  0  0  0
    5.8927    3.7625    0.0000 C   0  0  0  0  0  0  0  0  0  0  0  0
    3.9960    1.5475    0.0000 C   0  0  0  0  0  0  0  0  0  0  0  0
    3.0087    2.0974    0.0000 C   0  0  0  0  0  0  0  0  0  0  0  0
    2.0000    3.2237    0.0000 C   0  0  0  0  0  0  0  0  0  0  0  0
    2.4967    4.0916    0.0000 C   0  0  0  0  0  0  0  0  0  0  0  0
    9.1449   -0.7372    0.0000 H   0  0  0  0  0  0  0  0  0  0  0  0
    9.1700   -0.0490    0.0000 H   0  0  0  0  0  0  0  0  0  0  0  0
    8.7715    0.6413    0.0000 H   0  0  0  0  0  0  0  0  0  0  0  0
    9.7113   -2.7682    0.0000 H   0  0  0  0  0  0  0  0  0  0  0  0
   10.5629   -2.5592    0.0000 H   0  0  0  0  0  0  0  0  0  0  0  0
   10.3539   -1.7077    0.0000 H   0  0  0  0  0  0  0  0  0  0  0  0
   10.3395   -1.5359    0.0000 H   0  0  0  0  0  0  0  0  0  0  0  0
   10.4039   -0.6615    0.0000 H   0  0  0  0  0  0  0  0  0  0  0  0
    9.5295   -0.5970    0.0000 H   0  0  0  0  0  0  0  0  0  0  0  0
    5.3712   -2.7977    0.0000 H   0  0  0  0  0  0  0  0  0  0  0  0
    5.8951    4.3825    0.0000 H   0  0  0  0  0  0  0  0  0  0  0  0
    6.2796   -4.3227    0.0000 H   0  0  0  0  0  0  0  0  0  0  0  0
    4.5167   -1.2420    0.0000 H   0  0  0  0  0  0  0  0  0  0  0  0
    4.0080    0.9276    0.0000 H   0  0  0  0  0  0  0  0  0  0  0  0
    2.4754    1.7812    0.0000 H   0  0  0  0  0  0  0  0  0  0  0  0
    1.9976    3.8437    0.0000 H   0  0  0  0  0  0  0  0  0  0  0  0
    1.3800    3.2213    0.0000 H   0  0  0  0  0  0  0  0  0  0  0  0
    2.0024    2.6037    0.0000 H   0  0  0  0  0  0  0  0  0  0  0  0
    3.0324    4.4037    0.0000 H   0  0  0  0  0  0  0  0  0  0  0  0
    2.1846    4.6274    0.0000 H   0  0  0  0  0  0  0  0  0  0  0  0
    1.9609    3.7796    0.0000 H   0  0  0  0  0  0  0  0  0  0  0  0
    7.7071    4.3227    0.0000 H   0  0  0  0  0  0  0  0  0  0  0  0
  1  9  1  0  0  0  0
  1 12  1  0  0  0  0
  2 17  1  0  0  0  0
  2 23  1  0  0  0  0
  3 18  1  0  0  0  0
  3 44  1  0  0  0  0
  4 19  1  0  0  0  0
  4 45  1  0  0  0  0
  5 20  2  0  0  0  0
  6 26  1  0  0  0  0
  6 27  1  0  0  0  0
  7 25  1  0  0  0  0
  7 54  1  0  0  0  0
  8  9  1  0  0  0  0
  8 10  1  0  0  0  0
  8 11  1  0  0  0  0
  8 33  1  0  0  0  0
  9 15  1  0  0  0  0
  9 16  1  0  0  0  0
 10 12  1  0  0  0  0
 10 13  2  0  0  0  0
 11 14  1  0  0  0  0
 11 34  1  0  0  0  0
 11 35  1  0  0  0  0
 12 18  2  0  0  0  0
 13 17  1  0  0  0  0
 13 19  1  0  0  0  0
 14 17  2  0  0  0  0
 14 20  1  0  0  0  0
 15 36  1  0  0  0  0
 15 37  1  0  0  0  0
 15 38  1  0  0  0  0
 16 39  1  0  0  0  0
 16 40  1  0  0  0  0
 16 41  1  0  0  0  0
 18 21  1  0  0  0  0
 19 21  2  0  0  0  0
 20 22  1  0  0  0  0
 21 42  1  0  0  0  0
 22 23  2  0  0  0  0
 22 25  1  0  0  0  0
 23 24  1  0  0  0  0
 24 26  2  0  0  0  0
 24 29  1  0  0  0  0
 25 28  2  0  0  0  0
 26 28  1  0  0  0  0
 27 30  1  0  0  0  0
 27 31  1  0  0  0  0
 27 32  1  0  0  0  0
 28 43  1  0  0  0  0
 29 30  2  0  0  0  0
 29 46  1  0  0  0  0
 30 47  1  0  0  0  0
 31 48  1  0  0  0  0
 31 49  1  0  0  0  0
 31 50  1  0  0  0  0
 32 51  1  0  0  0  0
 32 52  1  0  0  0  0
 32 53  1  0  0  0  0
M  END
> <PUBCHEM_COMPOUND_CID>
10342859

> <PUBCHEM_COMPOUND_CANONICALIZED>
1

> <PUBCHEM_CACTVS_COMPLEXITY>
904

> <PUBCHEM_CACTVS_HBOND_ACCEPTOR>
7

> <PUBCHEM_CACTVS_HBOND_DONOR>
3

> <PUBCHEM_CACTVS_ROTATABLE_BOND>
0

> <PUBCHEM_CACTVS_SUBSKEYS>
AAADceB4OAAAAAAAAAAAAAAAAAAAASAAAAAwYIECAAAAAEiRQAAAGgAACAAADUSAmAAyBoAABgCIAqBSAAACCAAkIAAIiAEGiMgNJzaGNBqCeWOl4BULuQfI7PzOoQADCAAYQABCAAYQADCAAAAAAAAAAA==

> <PUBCHEM_IUPAC_OPENEYE_NAME>
12,21,23-trihydroxy-8,8,18,18-tetramethyl-3,9,19-trioxahexacyclo[15.6.1.02,15.04,13.05,10.020,24]tetracosa-1(24),2(15),4(13),5(10),6,11,20,22-octaen-14-one

> <PUBCHEM_IUPAC_CAS_NAME>
12,21,23-trihydroxy-8,8,18,18-tetramethyl-3,9,19-trioxahexacyclo[15.6.1.02,15.04,13.05,10.020,24]tetracosa-1(24),2(15),4(13),5(10),6,11,20,22-octaen-14-one

> <PUBCHEM_IUPAC_NAME_MARKUP>
12,21,23-trihydroxy-8,8,18,18-tetramethyl-3,9,19-trioxahexacyclo[15.6.1.0<SUP>2,15</SUP>.0<SUP>4,13</SUP>.0<SUP>5,10</SUP>.0<SUP>20,24</SUP>]tetracosa-1(24),2(15),4(13),5(10),6,11,20,22-octaen-14-one

> <PUBCHEM_IUPAC_NAME>
12,21,23-trihydroxy-8,8,18,18-tetramethyl-3,9,19-trioxahexacyclo[15.6.1.02,15.04,13.05,10.020,24]tetracosa-1(24),2(15),4(13),5(10),6,11,20,22-octaen-14-one

> <PUBCHEM_IUPAC_SYSTEMATIC_NAME>
8,8,18,18-tetramethyl-12,21,23-tris(oxidanyl)-3,9,19-trioxahexacyclo[15.6.1.02,15.04,13.05,10.020,24]tetracosa-1(24),2(15),4(13),5(10),6,11,20,22-octaen-14-one

> <PUBCHEM_IUPAC_TRADITIONAL_NAME>
12,21,23-trihydroxy-8,8,18,18-tetramethyl-3,9,19-trioxahexacyclo[15.6.1.02,15.04,13.05,10.020,24]tetracosa-1(24),2(15),4(13),5(10),6,11,20,22-octaen-14-one

> <PUBCHEM_IUPAC_INCHI>
InChI=1S/C25H22O7/c1-24(2)6-5-10-16(31-24)9-14(27)19-20(29)11-7-12-17-18(22(11)30-21(10)19)13(26)8-15(28)23(17)32-25(12,3)4/h5-6,8-9,12,26-28H,7H2,1-4H3

> <PUBCHEM_IUPAC_INCHIKEY>
OCZFLOUWXXGBPC-UHFFFAOYSA-N

> <PUBCHEM_XLOGP3_AA>
4

> <PUBCHEM_EXACT_MASS>
434.136553

> <PUBCHEM_MOLECULAR_FORMULA>
C25H22O7

> <PUBCHEM_MOLECULAR_WEIGHT>
434.4

> <PUBCHEM_OPENEYE_CAN_SMILES>
CC1(C=CC2=C(O1)C=C(C3=C2OC4=C(C3=O)CC5C6=C4C(=CC(=C6OC5(C)C)O)O)O)C

> <PUBCHEM_OPENEYE_ISO_SMILES>
CC1(C=CC2=C(O1)C=C(C3=C2OC4=C(C3=O)CC5C6=C4C(=CC(=C6OC5(C)C)O)O)O)C

> <PUBCHEM_CACTVS_TPSA>
105

> <PUBCHEM_MONOISOTOPIC_WEIGHT>
434.136553

> <PUBCHEM_TOTAL_CHARGE>
0

> <PUBCHEM_HEAVY_ATOM_COUNT>
32

> <PUBCHEM_ATOM_DEF_STEREO_COUNT>
0

> <PUBCHEM_ATOM_UDEF_STEREO_COUNT>
1

> <PUBCHEM_BOND_DEF_STEREO_COUNT>
0

> <PUBCHEM_BOND_UDEF_STEREO_COUNT>
0

> <PUBCHEM_ISOTOPIC_ATOM_COUNT>
0

> <PUBCHEM_COMPONENT_COUNT>
1

> <PUBCHEM_CACTVS_TAUTO_COUNT>
-1

> <PUBCHEM_COORDINATE_TYPE>
1
5
255

> <PUBCHEM_BONDANNOTATIONS>
10  12  8
10  13  8
12  18  8
13  19  8
14  17  8
14  20  8
18  21  8
19  21  8
2  17  8
2  23  8
20  22  8
22  23  8
22  25  8
23  24  8
24  26  8
25  28  8
26  28  8
8  11  3

$$$$
9997719
  -OEChem-04052116542D

 43 45  0     1  0  0  0  0  0999 V2000
    6.3981   -0.4254    0.0000 O   0  0  0  0  0  0  0  0  0  0  0  0
    6.3981    2.5746    0.0000 O   0  0  0  0  0  0  0  0  0  0  0  0
    7.2641   -1.9254    0.0000 O   0  0  0  0  0  0  0  0  0  0  0  0
    4.6497    2.6092    0.0000 O   0  0  0  0  0  0  0  0  0  0  0  0
   10.7282    0.0746    0.0000 O   0  0  0  0  0  0  0  0  0  0  0  0
    2.8680   -0.4495    0.0000 O   0  0  0  0  0  0  0  0  0  0  0  0
   10.7282   -1.9254    0.0000 O   0  0  0  0  0  0  0  0  0  0  0  0
    7.2641    0.0746    0.0000 C   0  0  1  0  0  0  0  0  0  0  0  0
    7.2641    1.0746    0.0000 C   0  0  0  0  0  0  0  0  0  0  0  0
    8.1301   -0.4254    0.0000 C   0  0  0  0  0  0  0  0  0  0  0  0
    5.5320    1.0746    0.0000 C   0  0  0  0  0  0  0  0  0  0  0  0
    6.3981    1.5746    0.0000 C   0  0  0  0  0  0  0  0  0  0  0  0
    5.5320    0.0746    0.0000 C   0  0  0  0  0  0  0  0  0  0  0  0
    8.1301   -1.4254    0.0000 C   0  0  0  0  0  0  0  0  0  0  0  0
    8.9962    0.0746    0.0000 C   0  0  0  0  0  0  0  0  0  0  0  0
    4.6381    1.6093    0.0000 C   0  0  0  0  0  0  0  0  0  0  0  0
    4.6381   -0.4601    0.0000 C   0  0  0  0  0  0  0  0  0  0  0  0
    9.8622   -0.4254    0.0000 C   0  0  0  0  0  0  0  0  0  0  0  0
    8.9962   -1.9254    0.0000 C   0  0  0  0  0  0  0  0  0  0  0  0
    3.7320    0.0538    0.0000 C   0  0  0  0  0  0  0  0  0  0  0  0
    3.7320    1.0954    0.0000 C   0  0  0  0  0  0  0  0  0  0  0  0
    9.8622   -1.4254    0.0000 C   0  0  0  0  0  0  0  0  0  0  0  0
   10.7282    1.0746    0.0000 C   0  0  0  0  0  0  0  0  0  0  0  0
    2.0000    0.0471    0.0000 C   0  0  0  0  0  0  0  0  0  0  0  0
   10.7282   -2.9254    0.0000 C   0  0  0  0  0  0  0  0  0  0  0  0
    7.2641   -0.7754    0.0000 H   0  0  0  0  0  0  0  0  0  0  0  0
    7.8747    0.9669    0.0000 H   0  0  0  0  0  0  0  0  0  0  0  0
    7.4762    1.6572    0.0000 H   0  0  0  0  0  0  0  0  0  0  0  0
    8.9962    0.6946    0.0000 H   0  0  0  0  0  0  0  0  0  0  0  0
    4.6453   -1.0800    0.0000 H   0  0  0  0  0  0  0  0  0  0  0  0
    8.9962   -2.5454    0.0000 H   0  0  0  0  0  0  0  0  0  0  0  0
    3.1963    1.4075    0.0000 H   0  0  0  0  0  0  0  0  0  0  0  0
    7.2641   -2.5454    0.0000 H   0  0  0  0  0  0  0  0  0  0  0  0
    4.1164    2.9254    0.0000 H   0  0  0  0  0  0  0  0  0  0  0  0
   11.3482    1.0746    0.0000 H   0  0  0  0  0  0  0  0  0  0  0  0
   10.7282    1.6946    0.0000 H   0  0  0  0  0  0  0  0  0  0  0  0
   10.1082    1.0746    0.0000 H   0  0  0  0  0  0  0  0  0  0  0  0
    2.3079    0.5852    0.0000 H   0  0  0  0  0  0  0  0  0  0  0  0
    1.4619    0.3550    0.0000 H   0  0  0  0  0  0  0  0  0  0  0  0
    1.6921   -0.4910    0.0000 H   0  0  0  0  0  0  0  0  0  0  0  0
   10.1082   -2.9254    0.0000 H   0  0  0  0  0  0  0  0  0  0  0  0
   10.7282   -3.5454    0.0000 H   0  0  0  0  0  0  0  0  0  0  0  0
   11.3482   -2.9254    0.0000 H   0  0  0  0  0  0  0  0  0  0  0  0
  1  8  1  0  0  0  0
  1 13  1  0  0  0  0
  2 12  2  0  0  0  0
  3 14  1  0  0  0  0
  3 33  1  0  0  0  0
  4 16  1  0  0  0  0
  4 34  1  0  0  0  0
  5 18  1  0  0  0  0
  5 23  1  0  0  0  0
  6 20  1  0  0  0  0
  6 24  1  0  0  0  0
  7 22  1  0  0  0  0
  7 25  1  0  0  0  0
  8  9  1  0  0  0  0
  8 10  1  0  0  0  0
  8 26  1  6  0  0  0
  9 12  1  0  0  0  0
  9 27  1  0  0  0  0
  9 28  1  0  0  0  0
 10 14  1  0  0  0  0
 10 15  2  0  0  0  0
 11 12  1  0  0  0  0
 11 13  1  0  0  0  0
 11 16  2  0  0  0  0
 13 17  2  0  0  0  0
 14 19  2  0  0  0  0
 15 18  1  0  0  0  0
 15 29  1  0  0  0  0
 16 21  1  0  0  0  0
 17 20  1  0  0  0  0
 17 30  1  0  0  0  0
 18 22  2  0  0  0  0
 19 22  1  0  0  0  0
 19 31  1  0  0  0  0
 20 21  2  0  0  0  0
 21 32  1  0  0  0  0
 23 35  1  0  0  0  0
 23 36  1  0  0  0  0
 23 37  1  0  0  0  0
 24 38  1  0  0  0  0
 24 39  1  0  0  0  0
 24 40  1  0  0  0  0
 25 41  1  0  0  0  0
 25 42  1  0  0  0  0
 25 43  1  0  0  0  0
M  END
> <PUBCHEM_COMPOUND_CID>
9997719

> <PUBCHEM_COMPOUND_CANONICALIZED>
1

> <PUBCHEM_CACTVS_COMPLEXITY>
470

> <PUBCHEM_CACTVS_HBOND_ACCEPTOR>
7

> <PUBCHEM_CACTVS_HBOND_DONOR>
2

> <PUBCHEM_CACTVS_ROTATABLE_BOND>
4

> <PUBCHEM_CACTVS_SUBSKEYS>
AAADceB4OAAAAAAAAAAAAAAAAAAAAAAAAAA0YIAAAAAAAACRQAAAGgAACAAADBSgmAIyBoAABgCIAqBSAAACCAAkIAAAiAEGiMgNJzaGNRqCeWKl4BUKuQfI7PzOIQABCAAIQABCAAIQABCAAAAAAAAAAA==

> <PUBCHEM_IUPAC_OPENEYE_NAME>
(2S)-5-hydroxy-2-(2-hydroxy-4,5-dimethoxy-phenyl)-7-methoxy-chroman-4-one

> <PUBCHEM_IUPAC_CAS_NAME>
(2S)-5-hydroxy-2-(2-hydroxy-4,5-dimethoxyphenyl)-7-methoxy-3,4-dihydro-2H-1-benzopyran-4-one

> <PUBCHEM_IUPAC_NAME_MARKUP>
(2<I>S</I>)-5-hydroxy-2-(2-hydroxy-4,5-dimethoxyphenyl)-7-methoxy-2,3-dihydrochromen-4-one

> <PUBCHEM_IUPAC_NAME>
(2S)-5-hydroxy-2-(2-hydroxy-4,5-dimethoxyphenyl)-7-methoxy-2,3-dihydrochromen-4-one

> <PUBCHEM_IUPAC_SYSTEMATIC_NAME>
(2S)-2-(4,5-dimethoxy-2-oxidanyl-phenyl)-7-methoxy-5-oxidanyl-2,3-dihydrochromen-4-one

> <PUBCHEM_IUPAC_TRADITIONAL_NAME>
(2S)-5-hydroxy-2-(2-hydroxy-4,5-dimethoxy-phenyl)-7-methoxy-chroman-4-one

> <PUBCHEM_IUPAC_INCHI>
InChI=1S/C18H18O7/c1-22-9-4-12(20)18-13(21)8-14(25-17(18)5-9)10-6-15(23-2)16(24-3)7-11(10)19/h4-7,14,19-20H,8H2,1-3H3/t14-/m0/s1

> <PUBCHEM_IUPAC_INCHIKEY>
JVEWHXHGRUJELM-AWEZNQCLSA-N

> <PUBCHEM_XLOGP3_AA>
2.7

> <PUBCHEM_EXACT_MASS>
346.105253

> <PUBCHEM_MOLECULAR_FORMULA>
C18H18O7

> <PUBCHEM_MOLECULAR_WEIGHT>
346.3

> <PUBCHEM_OPENEYE_CAN_SMILES>
COC1=CC(=C2C(=O)CC(OC2=C1)C3=CC(=C(C=C3O)OC)OC)O

> <PUBCHEM_OPENEYE_ISO_SMILES>
COC1=CC(=C2C(=O)C[C@H](OC2=C1)C3=CC(=C(C=C3O)OC)OC)O

> <PUBCHEM_CACTVS_TPSA>
94.4

> <PUBCHEM_MONOISOTOPIC_WEIGHT>
346.105253

> <PUBCHEM_TOTAL_CHARGE>
0

> <PUBCHEM_HEAVY_ATOM_COUNT>
25

> <PUBCHEM_ATOM_DEF_STEREO_COUNT>
1

> <PUBCHEM_ATOM_UDEF_STEREO_COUNT>
0

> <PUBCHEM_BOND_DEF_STEREO_COUNT>
0

> <PUBCHEM_BOND_UDEF_STEREO_COUNT>
0

> <PUBCHEM_ISOTOPIC_ATOM_COUNT>
0

> <PUBCHEM_COMPONENT_COUNT>
1

> <PUBCHEM_CACTVS_TAUTO_COUNT>
-1

> <PUBCHEM_COORDINATE_TYPE>
1
5
255

> <PUBCHEM_BONDANNOTATIONS>
10  14  8
10  15  8
11  13  8
11  16  8
13  17  8
14  19  8
15  18  8
16  21  8
17  20  8
18  22  8
19  22  8
20  21  8
8  26  6

$$$$
6442389
  -OEChem-04052116542D

 45 47  0     0  0  0  0  0  0999 V2000
    6.3580    0.3530    0.0000 O   0  0  0  0  0  0  0  0  0  0  0  0
    3.7320   -3.1123    0.0000 O   0  0  0  0  0  0  0  0  0  0  0  0
    2.8660    0.3877    0.0000 O   0  0  0  0  0  0  0  0  0  0  0  0
    6.3465    3.4223    0.0000 O   0  0  0  0  0  0  0  0  0  0  0  0
    3.7320   -2.1123    0.0000 C   0  0  0  0  0  0  0  0  0  0  0  0
    4.5981    0.3877    0.0000 C   0  0  0  0  0  0  0  0  0  0  0  0
    5.4641    0.8877    0.0000 C   0  0  0  0  0  0  0  0  0  0  0  0
    5.4641    1.8877    0.0000 C   0  0  0  0  0  0  0  0  0  0  0  0
    3.7320   -1.1123    0.0000 C   0  0  0  0  0  0  0  0  0  0  0  0
    4.5981   -0.6123    0.0000 C   0  0  0  0  0  0  0  0  0  0  0  0
    3.7320    0.8877    0.0000 C   0  0  0  0  0  0  0  0  0  0  0  0
    2.7320   -2.1123    0.0000 C   0  0  0  0  0  0  0  0  0  0  0  0
    4.7320   -2.1123    0.0000 C   0  0  0  0  0  0  0  0  0  0  0  0
    4.5981    2.3877    0.0000 C   0  0  0  0  0  0  0  0  0  0  0  0
    7.2641    0.8669    0.0000 C   0  0  0  0  0  0  0  0  0  0  0  0
    6.3580    2.4224    0.0000 C   0  0  0  0  0  0  0  0  0  0  0  0
    3.7320    1.8877    0.0000 C   0  0  0  0  0  0  0  0  0  0  0  0
    7.2641    1.9085    0.0000 C   0  0  0  0  0  0  0  0  0  0  0  0
    8.1282    0.3636    0.0000 C   0  0  0  0  0  0  0  0  0  0  0  0
    8.1244   -0.6364    0.0000 C   0  0  0  0  0  0  0  0  0  0  0  0
    8.9962    0.8602    0.0000 C   0  0  0  0  0  0  0  0  0  0  0  0
    8.9884   -1.1398    0.0000 C   0  0  0  0  0  0  0  0  0  0  0  0
    9.8602    0.3569    0.0000 C   0  0  0  0  0  0  0  0  0  0  0  0
    2.0000    0.8877    0.0000 C   0  0  0  0  0  0  0  0  0  0  0  0
    9.8564   -0.6431    0.0000 C   0  0  0  0  0  0  0  0  0  0  0  0
    3.1951   -0.8023    0.0000 H   0  0  0  0  0  0  0  0  0  0  0  0
    5.1350   -0.9223    0.0000 H   0  0  0  0  0  0  0  0  0  0  0  0
    2.7320   -1.4923    0.0000 H   0  0  0  0  0  0  0  0  0  0  0  0
    2.1120   -2.1123    0.0000 H   0  0  0  0  0  0  0  0  0  0  0  0
    2.7320   -2.7323    0.0000 H   0  0  0  0  0  0  0  0  0  0  0  0
    4.7320   -2.7323    0.0000 H   0  0  0  0  0  0  0  0  0  0  0  0
    5.3520   -2.1123    0.0000 H   0  0  0  0  0  0  0  0  0  0  0  0
    4.7320   -1.4923    0.0000 H   0  0  0  0  0  0  0  0  0  0  0  0
    4.5981    3.0077    0.0000 H   0  0  0  0  0  0  0  0  0  0  0  0
    3.1951    2.1977    0.0000 H   0  0  0  0  0  0  0  0  0  0  0  0
    7.7998    2.2206    0.0000 H   0  0  0  0  0  0  0  0  0  0  0  0
    3.1951   -3.4223    0.0000 H   0  0  0  0  0  0  0  0  0  0  0  0
    7.5862   -0.9444    0.0000 H   0  0  0  0  0  0  0  0  0  0  0  0
    8.9985    1.4802    0.0000 H   0  0  0  0  0  0  0  0  0  0  0  0
    8.9860   -1.7598    0.0000 H   0  0  0  0  0  0  0  0  0  0  0  0
   10.3984    0.6648    0.0000 H   0  0  0  0  0  0  0  0  0  0  0  0
    2.3100    1.4246    0.0000 H   0  0  0  0  0  0  0  0  0  0  0  0
    1.4631    1.1977    0.0000 H   0  0  0  0  0  0  0  0  0  0  0  0
    1.6900    0.3508    0.0000 H   0  0  0  0  0  0  0  0  0  0  0  0
   10.3921   -0.9552    0.0000 H   0  0  0  0  0  0  0  0  0  0  0  0
  1  7  1  0  0  0  0
  1 15  1  0  0  0  0
  2  5  1  0  0  0  0
  2 37  1  0  0  0  0
  3 11  1  0  0  0  0
  3 24  1  0  0  0  0
  4 16  2  0  0  0  0
  5  9  1  0  0  0  0
  5 12  1  0  0  0  0
  5 13  1  0  0  0  0
  6  7  1  0  0  0  0
  6 10  1  0  0  0  0
  6 11  2  0  0  0  0
  7  8  2  0  0  0  0
  8 14  1  0  0  0  0
  8 16  1  0  0  0  0
  9 10  2  0  0  0  0
  9 26  1  0  0  0  0
 10 27  1  0  0  0  0
 11 17  1  0  0  0  0
 12 28  1  0  0  0  0
 12 29  1  0  0  0  0
 12 30  1  0  0  0  0
 13 31  1  0  0  0  0
 13 32  1  0  0  0  0
 13 33  1  0  0  0  0
 14 17  2  0  0  0  0
 14 34  1  0  0  0  0
 15 18  2  0  0  0  0
 15 19  1  0  0  0  0
 16 18  1  0  0  0  0
 17 35  1  0  0  0  0
 18 36  1  0  0  0  0
 19 20  2  0  0  0  0
 19 21  1  0  0  0  0
 20 22  1  0  0  0  0
 20 38  1  0  0  0  0
 21 23  2  0  0  0  0
 21 39  1  0  0  0  0
 22 25  2  0  0  0  0
 22 40  1  0  0  0  0
 23 25  1  0  0  0  0
 23 41  1  0  0  0  0
 24 42  1  0  0  0  0
 24 43  1  0  0  0  0
 24 44  1  0  0  0  0
 25 45  1  0  0  0  0
M  END
> <PUBCHEM_COMPOUND_CID>
6442389

> <PUBCHEM_COMPOUND_CANONICALIZED>
1

> <PUBCHEM_CACTVS_COMPLEXITY>
542

> <PUBCHEM_CACTVS_HBOND_ACCEPTOR>
4

> <PUBCHEM_CACTVS_HBOND_DONOR>
1

> <PUBCHEM_CACTVS_ROTATABLE_BOND>
4

> <PUBCHEM_CACTVS_SUBSKEYS>
AAADceB4OAAAAAAAAAAAAAAAAAAAAAAAAAAwYIAAAAAAAACBQAAAGgAACAAADESAmAIyBoAABgCIAqBSAAACCAAkIAAIiAEGCMgMJzaENRqCOWCl4BUIuYeI7OzOIAACCAAIAABAAAQQABAAAAAAAAAAAA==

> <PUBCHEM_IUPAC_OPENEYE_NAME>
8-[(E)-3-hydroxy-3-methyl-but-1-enyl]-7-methoxy-2-phenyl-chromen-4-one

> <PUBCHEM_IUPAC_CAS_NAME>
8-[(E)-3-hydroxy-3-methylbut-1-enyl]-7-methoxy-2-phenyl-1-benzopyran-4-one

> <PUBCHEM_IUPAC_NAME_MARKUP>
8-[(<I>E</I>)-3-hydroxy-3-methylbut-1-enyl]-7-methoxy-2-phenylchromen-4-one

> <PUBCHEM_IUPAC_NAME>
8-[(E)-3-hydroxy-3-methylbut-1-enyl]-7-methoxy-2-phenylchromen-4-one

> <PUBCHEM_IUPAC_SYSTEMATIC_NAME>
7-methoxy-8-[(E)-3-methyl-3-oxidanyl-but-1-enyl]-2-phenyl-chromen-4-one

> <PUBCHEM_IUPAC_TRADITIONAL_NAME>
8-[(E)-3-hydroxy-3-methyl-but-1-enyl]-7-methoxy-2-phenyl-chromone

> <PUBCHEM_IUPAC_INCHI>
InChI=1S/C21H20O4/c1-21(2,23)12-11-16-18(24-3)10-9-15-17(22)13-19(25-20(15)16)14-7-5-4-6-8-14/h4-13,23H,1-3H3/b12-11+

> <PUBCHEM_IUPAC_INCHIKEY>
GWHQUBFEZSVTKH-VAWYXSNFSA-N

> <PUBCHEM_XLOGP3_AA>
3.5

> <PUBCHEM_EXACT_MASS>
336.136159

> <PUBCHEM_MOLECULAR_FORMULA>
C21H20O4

> <PUBCHEM_MOLECULAR_WEIGHT>
336.4

> <PUBCHEM_OPENEYE_CAN_SMILES>
CC(C)(C=CC1=C(C=CC2=C1OC(=CC2=O)C3=CC=CC=C3)OC)O

> <PUBCHEM_OPENEYE_ISO_SMILES>
CC(C)(/C=C/C1=C(C=CC2=C1OC(=CC2=O)C3=CC=CC=C3)OC)O

> <PUBCHEM_CACTVS_TPSA>
55.8

> <PUBCHEM_MONOISOTOPIC_WEIGHT>
336.136159

> <PUBCHEM_TOTAL_CHARGE>
0

> <PUBCHEM_HEAVY_ATOM_COUNT>
25

> <PUBCHEM_ATOM_DEF_STEREO_COUNT>
0

> <PUBCHEM_ATOM_UDEF_STEREO_COUNT>
0

> <PUBCHEM_BOND_DEF_STEREO_COUNT>
1

> <PUBCHEM_BOND_UDEF_STEREO_COUNT>
0

> <PUBCHEM_ISOTOPIC_ATOM_COUNT>
0

> <PUBCHEM_COMPONENT_COUNT>
1

> <PUBCHEM_CACTVS_TAUTO_COUNT>
-1

> <PUBCHEM_COORDINATE_TYPE>
1
5
255

> <PUBCHEM_BONDANNOTATIONS>
1  15  8
1  7  8
11  17  8
14  17  8
15  18  8
16  18  8
19  20  8
19  21  8
20  22  8
21  23  8
22  25  8
23  25  8
6  11  8
6  7  8
7  8  8
8  14  8
8  16  8

$$$$
5459184
  -OEChem-04052116542D

 45 47  0     0  0  0  0  0  0999 V2000
    6.3981   -0.1754    0.0000 O   0  0  0  0  0  0  0  0  0  0  0  0
    8.1301    1.8246    0.0000 O   0  0  0  0  0  0  0  0  0  0  0  0
    4.6497   -1.2100    0.0000 O   0  0  0  0  0  0  0  0  0  0  0  0
    2.8680   -0.1995    0.0000 O   0  0  0  0  0  0  0  0  0  0  0  0
    4.6497    2.8592    0.0000 O   0  0  0  0  0  0  0  0  0  0  0  0
    6.3981    2.8246    0.0000 O   0  0  0  0  0  0  0  0  0  0  0  0
    8.9962   -2.6754    0.0000 O   0  0  0  0  0  0  0  0  0  0  0  0
   10.7282   -1.6754    0.0000 O   0  0  0  0  0  0  0  0  0  0  0  0
    5.5320    1.3246    0.0000 C   0  0  0  0  0  0  0  0  0  0  0  0
    5.5320    0.3246    0.0000 C   0  0  0  0  0  0  0  0  0  0  0  0
    7.2641    0.3246    0.0000 C   0  0  0  0  0  0  0  0  0  0  0  0
    7.2641    1.3246    0.0000 C   0  0  0  0  0  0  0  0  0  0  0  0
    6.3981    1.8246    0.0000 C   0  0  0  0  0  0  0  0  0  0  0  0
    4.6381   -0.2101    0.0000 C   0  0  0  0  0  0  0  0  0  0  0  0
    8.1301   -0.1754    0.0000 C   0  0  0  0  0  0  0  0  0  0  0  0
    4.6381    1.8593    0.0000 C   0  0  0  0  0  0  0  0  0  0  0  0
    3.7320    0.3038    0.0000 C   0  0  0  0  0  0  0  0  0  0  0  0
    3.7320    1.3454    0.0000 C   0  0  0  0  0  0  0  0  0  0  0  0
    8.1301   -1.1754    0.0000 C   0  0  0  0  0  0  0  0  0  0  0  0
    8.9962    0.3246    0.0000 C   0  0  0  0  0  0  0  0  0  0  0  0
    8.9962   -1.6754    0.0000 C   0  0  0  0  0  0  0  0  0  0  0  0
    9.8622   -0.1754    0.0000 C   0  0  0  0  0  0  0  0  0  0  0  0
    9.8622   -1.1754    0.0000 C   0  0  0  0  0  0  0  0  0  0  0  0
    8.1301    2.8246    0.0000 C   0  0  0  0  0  0  0  0  0  0  0  0
    3.7895   -1.7200    0.0000 C   0  0  0  0  0  0  0  0  0  0  0  0
    2.0000    0.2971    0.0000 C   0  0  0  0  0  0  0  0  0  0  0  0
    9.8622   -3.1754    0.0000 C   0  0  0  0  0  0  0  0  0  0  0  0
    3.1963    1.6575    0.0000 H   0  0  0  0  0  0  0  0  0  0  0  0
    7.5932   -1.4854    0.0000 H   0  0  0  0  0  0  0  0  0  0  0  0
    8.9962    0.9446    0.0000 H   0  0  0  0  0  0  0  0  0  0  0  0
   10.3991    0.1346    0.0000 H   0  0  0  0  0  0  0  0  0  0  0  0
    4.1164    3.1754    0.0000 H   0  0  0  0  0  0  0  0  0  0  0  0
    8.7501    2.8246    0.0000 H   0  0  0  0  0  0  0  0  0  0  0  0
    8.1301    3.4446    0.0000 H   0  0  0  0  0  0  0  0  0  0  0  0
    7.5101    2.8246    0.0000 H   0  0  0  0  0  0  0  0  0  0  0  0
    3.4733   -1.1866    0.0000 H   0  0  0  0  0  0  0  0  0  0  0  0
    3.2562   -2.0362    0.0000 H   0  0  0  0  0  0  0  0  0  0  0  0
    4.1057   -2.2533    0.0000 H   0  0  0  0  0  0  0  0  0  0  0  0
    2.3079    0.8352    0.0000 H   0  0  0  0  0  0  0  0  0  0  0  0
    1.4619    0.6050    0.0000 H   0  0  0  0  0  0  0  0  0  0  0  0
    1.6921   -0.2410    0.0000 H   0  0  0  0  0  0  0  0  0  0  0  0
   11.2651   -1.3654    0.0000 H   0  0  0  0  0  0  0  0  0  0  0  0
    9.5522   -3.7123    0.0000 H   0  0  0  0  0  0  0  0  0  0  0  0
   10.3991   -3.4854    0.0000 H   0  0  0  0  0  0  0  0  0  0  0  0
   10.1722   -2.6385    0.0000 H   0  0  0  0  0  0  0  0  0  0  0  0
  1 10  1  0  0  0  0
  1 11  1  0  0  0  0
  2 12  1  0  0  0  0
  2 24  1  0  0  0  0
  3 14  1  0  0  0  0
  3 25  1  0  0  0  0
  4 17  1  0  0  0  0
  4 26  1  0  0  0  0
  5 16  1  0  0  0  0
  5 32  1  0  0  0  0
  6 13  2  0  0  0  0
  7 21  1  0  0  0  0
  7 27  1  0  0  0  0
  8 23  1  0  0  0  0
  8 42  1  0  0  0  0
  9 10  2  0  0  0  0
  9 13  1  0  0  0  0
  9 16  1  0  0  0  0
 10 14  1  0  0  0  0
 11 12  2  0  0  0  0
 11 15  1  0  0  0  0
 12 13  1  0  0  0  0
 14 17  2  0  0  0  0
 15 19  2  0  0  0  0
 15 20  1  0  0  0  0
 16 18  2  0  0  0  0
 17 18  1  0  0  0  0
 18 28  1  0  0  0  0
 19 21  1  0  0  0  0
 19 29  1  0  0  0  0
 20 22  2  0  0  0  0
 20 30  1  0  0  0  0
 21 23  2  0  0  0  0
 22 23  1  0  0  0  0
 22 31  1  0  0  0  0
 24 33  1  0  0  0  0
 24 34  1  0  0  0  0
 24 35  1  0  0  0  0
 25 36  1  0  0  0  0
 25 37  1  0  0  0  0
 25 38  1  0  0  0  0
 26 39  1  0  0  0  0
 26 40  1  0  0  0  0
 26 41  1  0  0  0  0
 27 43  1  0  0  0  0
 27 44  1  0  0  0  0
 27 45  1  0  0  0  0
M  END
> <PUBCHEM_COMPOUND_CID>
5459184

> <PUBCHEM_COMPOUND_CANONICALIZED>
1

> <PUBCHEM_CACTVS_COMPLEXITY>
576

> <PUBCHEM_CACTVS_HBOND_ACCEPTOR>
8

> <PUBCHEM_CACTVS_HBOND_DONOR>
2

> <PUBCHEM_CACTVS_ROTATABLE_BOND>
5

> <PUBCHEM_CACTVS_SUBSKEYS>
AAADceB4PAAAAAAAAAAAAAAAAAAAAAAAAAAwYIAAAAAAAACBQAAAGgAACAAADASAmAIyBoAABgCIAqBSAAICCAAkIAAIiAFGiMgNJzaGNR6CeWOl4BULuQfK7LzOIQABCAAIQABCAAIQABCAAAAAAAAAAA==

> <PUBCHEM_IUPAC_OPENEYE_NAME>
5-hydroxy-2-(4-hydroxy-3-methoxy-phenyl)-3,7,8-trimethoxy-chromen-4-one

> <PUBCHEM_IUPAC_CAS_NAME>
5-hydroxy-2-(4-hydroxy-3-methoxyphenyl)-3,7,8-trimethoxy-1-benzopyran-4-one

> <PUBCHEM_IUPAC_NAME_MARKUP>
5-hydroxy-2-(4-hydroxy-3-methoxyphenyl)-3,7,8-trimethoxychromen-4-one

> <PUBCHEM_IUPAC_NAME>
5-hydroxy-2-(4-hydroxy-3-methoxyphenyl)-3,7,8-trimethoxychromen-4-one

> <PUBCHEM_IUPAC_SYSTEMATIC_NAME>
3,7,8-trimethoxy-2-(3-methoxy-4-oxidanyl-phenyl)-5-oxidanyl-chromen-4-one

> <PUBCHEM_IUPAC_TRADITIONAL_NAME>
5-hydroxy-2-(4-hydroxy-3-methoxy-phenyl)-3,7,8-trimethoxy-chromone

> <PUBCHEM_IUPAC_INCHI>
InChI=1S/C19H18O8/c1-23-12-7-9(5-6-10(12)20)16-19(26-4)15(22)14-11(21)8-13(24-2)17(25-3)18(14)27-16/h5-8,20-21H,1-4H3

> <PUBCHEM_IUPAC_INCHIKEY>
DGUWNYKZOJRCQQ-UHFFFAOYSA-N

> <PUBCHEM_XLOGP3_AA>
3.1

> <PUBCHEM_EXACT_MASS>
374.100168

> <PUBCHEM_MOLECULAR_FORMULA>
C19H18O8

> <PUBCHEM_MOLECULAR_WEIGHT>
374.3

> <PUBCHEM_OPENEYE_CAN_SMILES>
COC1=C(C=CC(=C1)C2=C(C(=O)C3=C(O2)C(=C(C=C3O)OC)OC)OC)O

> <PUBCHEM_OPENEYE_ISO_SMILES>
COC1=C(C=CC(=C1)C2=C(C(=O)C3=C(O2)C(=C(C=C3O)OC)OC)OC)O

> <PUBCHEM_CACTVS_TPSA>
104

> <PUBCHEM_MONOISOTOPIC_WEIGHT>
374.100168

> <PUBCHEM_TOTAL_CHARGE>
0

> <PUBCHEM_HEAVY_ATOM_COUNT>
27

> <PUBCHEM_ATOM_DEF_STEREO_COUNT>
0

> <PUBCHEM_ATOM_UDEF_STEREO_COUNT>
0

> <PUBCHEM_BOND_DEF_STEREO_COUNT>
0

> <PUBCHEM_BOND_UDEF_STEREO_COUNT>
0

> <PUBCHEM_ISOTOPIC_ATOM_COUNT>
0

> <PUBCHEM_COMPONENT_COUNT>
1

> <PUBCHEM_CACTVS_TAUTO_COUNT>
-1

> <PUBCHEM_COORDINATE_TYPE>
1
5
255

> <PUBCHEM_BONDANNOTATIONS>
1  10  8
1  11  8
10  14  8
11  12  8
12  13  8
14  17  8
15  19  8
15  20  8
16  18  8
17  18  8
19  21  8
20  22  8
21  23  8
22  23  8
9  10  8
9  13  8
9  16  8

$$$$
5359268
  -OEChem-04052116542D

  1  0  0     0  0  0  0  0  0999 V2000
    2.0000    0.0000    0.0000 Al  0  0  0  0  0 15  0  0  0  0  0  0
M  END
> <PUBCHEM_COMPOUND_CID>
5359268

> <PUBCHEM_COMPOUND_CANONICALIZED>
1

> <PUBCHEM_CACTVS_COMPLEXITY>
0

> <PUBCHEM_CACTVS_HBOND_ACCEPTOR>
0

> <PUBCHEM_CACTVS_HBOND_DONOR>
0

> <PUBCHEM_CACTVS_ROTATABLE_BOND>
0

> <PUBCHEM_CACTVS_SUBSKEYS>
AAADcQAAAAAAABAAAAAAAAAAAAAAAAAAAAAAAAAAAAAAAAAAAAAAAAAAAAAAAAAAAAAAAAAAAAAAAAAAAAAAAAAAAAAAAAAAAAAAAAAAAAAAAAAAAAAAAAAAAAAAAAAAAAAAAAAAAAAAAAAAAAAAAAAAAA==

> <PUBCHEM_IUPAC_OPENEYE_NAME>
aluminum

> <PUBCHEM_IUPAC_CAS_NAME>
aluminum

> <PUBCHEM_IUPAC_NAME_MARKUP>
aluminum

> <PUBCHEM_IUPAC_NAME>
aluminum

> <PUBCHEM_IUPAC_SYSTEMATIC_NAME>
aluminum

> <PUBCHEM_IUPAC_TRADITIONAL_NAME>
aluminum

> <PUBCHEM_IUPAC_INCHI>
InChI=1S/Al

> <PUBCHEM_IUPAC_INCHIKEY>
XAGFODPZIPBFFR-UHFFFAOYSA-N

> <PUBCHEM_EXACT_MASS>
26.981538

> <PUBCHEM_MOLECULAR_FORMULA>
Al

> <PUBCHEM_MOLECULAR_WEIGHT>
26.981538

> <PUBCHEM_OPENEYE_CAN_SMILES>
[Al]

> <PUBCHEM_OPENEYE_ISO_SMILES>
[Al]

> <PUBCHEM_CACTVS_TPSA>
0

> <PUBCHEM_MONOISOTOPIC_WEIGHT>
26.981538

> <PUBCHEM_TOTAL_CHARGE>
0

> <PUBCHEM_HEAVY_ATOM_COUNT>
1

> <PUBCHEM_ATOM_DEF_STEREO_COUNT>
0

> <PUBCHEM_ATOM_UDEF_STEREO_COUNT>
0

> <PUBCHEM_BOND_DEF_STEREO_COUNT>
0

> <PUBCHEM_BOND_UDEF_STEREO_COUNT>
0

> <PUBCHEM_ISOTOPIC_ATOM_COUNT>
0

> <PUBCHEM_COMPONENT_COUNT>
1

> <PUBCHEM_CACTVS_TAUTO_COUNT>
-1

> <PUBCHEM_COORDINATE_TYPE>
1
5
255

$$$$
5317287
  -OEChem-04052116542D

 42 44  0     0  0  0  0  0  0999 V2000
    6.3981   -0.2704    0.0000 O   0  0  0  0  0  0  0  0  0  0  0  0
    2.8680    1.7538    0.0000 O   0  0  0  0  0  0  0  0  0  0  0  0
    2.8680   -0.2945    0.0000 O   0  0  0  0  0  0  0  0  0  0  0  0
    4.6497    2.7642    0.0000 O   0  0  0  0  0  0  0  0  0  0  0  0
    8.1301    1.7296    0.0000 O   0  0  0  0  0  0  0  0  0  0  0  0
    6.3981    2.7296    0.0000 O   0  0  0  0  0  0  0  0  0  0  0  0
   10.7282   -1.7704    0.0000 O   0  0  0  0  0  0  0  0  0  0  0  0
    8.9962   -2.7704    0.0000 O   0  0  0  0  0  0  0  0  0  0  0  0
    5.5320    1.2296    0.0000 C   0  0  0  0  0  0  0  0  0  0  0  0
    5.5320    0.2296    0.0000 C   0  0  0  0  0  0  0  0  0  0  0  0
    7.2641    0.2296    0.0000 C   0  0  0  0  0  0  0  0  0  0  0  0
    4.6381    1.7643    0.0000 C   0  0  0  0  0  0  0  0  0  0  0  0
    6.3981    1.7296    0.0000 C   0  0  0  0  0  0  0  0  0  0  0  0
    7.2641    1.2296    0.0000 C   0  0  0  0  0  0  0  0  0  0  0  0
    8.1301   -0.2704    0.0000 C   0  0  0  0  0  0  0  0  0  0  0  0
    4.6381   -0.3051    0.0000 C   0  0  0  0  0  0  0  0  0  0  0  0
    3.7320    1.2504    0.0000 C   0  0  0  0  0  0  0  0  0  0  0  0
    3.7320    0.2088    0.0000 C   0  0  0  0  0  0  0  0  0  0  0  0
    8.1301   -1.2704    0.0000 C   0  0  0  0  0  0  0  0  0  0  0  0
    8.9962    0.2296    0.0000 C   0  0  0  0  0  0  0  0  0  0  0  0
    8.9962   -1.7704    0.0000 C   0  0  0  0  0  0  0  0  0  0  0  0
    9.8622   -0.2704    0.0000 C   0  0  0  0  0  0  0  0  0  0  0  0
    9.8622   -1.2704    0.0000 C   0  0  0  0  0  0  0  0  0  0  0  0
    2.0000    1.2571    0.0000 C   0  0  0  0  0  0  0  0  0  0  0  0
    2.8718   -1.2945    0.0000 C   0  0  0  0  0  0  0  0  0  0  0  0
   11.5942   -1.2704    0.0000 C   0  0  0  0  0  0  0  0  0  0  0  0
    4.6453   -0.9250    0.0000 H   0  0  0  0  0  0  0  0  0  0  0  0
    7.5932   -1.5804    0.0000 H   0  0  0  0  0  0  0  0  0  0  0  0
    8.9962    0.8496    0.0000 H   0  0  0  0  0  0  0  0  0  0  0  0
   10.3991    0.0396    0.0000 H   0  0  0  0  0  0  0  0  0  0  0  0
    4.1164    3.0804    0.0000 H   0  0  0  0  0  0  0  0  0  0  0  0
    8.1301    2.3496    0.0000 H   0  0  0  0  0  0  0  0  0  0  0  0
    1.6921    1.7952    0.0000 H   0  0  0  0  0  0  0  0  0  0  0  0
    1.4619    0.9492    0.0000 H   0  0  0  0  0  0  0  0  0  0  0  0
    2.3079    0.7190    0.0000 H   0  0  0  0  0  0  0  0  0  0  0  0
    2.2518   -1.2969    0.0000 H   0  0  0  0  0  0  0  0  0  0  0  0
    2.8742   -1.9145    0.0000 H   0  0  0  0  0  0  0  0  0  0  0  0
    3.4918   -1.2921    0.0000 H   0  0  0  0  0  0  0  0  0  0  0  0
    9.5331   -3.0804    0.0000 H   0  0  0  0  0  0  0  0  0  0  0  0
   11.9042   -1.8073    0.0000 H   0  0  0  0  0  0  0  0  0  0  0  0
   12.1312   -0.9604    0.0000 H   0  0  0  0  0  0  0  0  0  0  0  0
   11.2842   -0.7335    0.0000 H   0  0  0  0  0  0  0  0  0  0  0  0
  1 10  1  0  0  0  0
  1 11  1  0  0  0  0
  2 17  1  0  0  0  0
  2 24  1  0  0  0  0
  3 18  1  0  0  0  0
  3 25  1  0  0  0  0
  4 12  1  0  0  0  0
  4 31  1  0  0  0  0
  5 14  1  0  0  0  0
  5 32  1  0  0  0  0
  6 13  2  0  0  0  0
  7 23  1  0  0  0  0
  7 26  1  0  0  0  0
  8 21  1  0  0  0  0
  8 39  1  0  0  0  0
  9 10  1  0  0  0  0
  9 12  2  0  0  0  0
  9 13  1  0  0  0  0
 10 16  2  0  0  0  0
 11 14  2  0  0  0  0
 11 15  1  0  0  0  0
 12 17  1  0  0  0  0
 13 14  1  0  0  0  0
 15 19  2  0  0  0  0
 15 20  1  0  0  0  0
 16 18  1  0  0  0  0
 16 27  1  0  0  0  0
 17 18  2  0  0  0  0
 19 21  1  0  0  0  0
 19 28  1  0  0  0  0
 20 22  2  0  0  0  0
 20 29  1  0  0  0  0
 21 23  2  0  0  0  0
 22 23  1  0  0  0  0
 22 30  1  0  0  0  0
 24 33  1  0  0  0  0
 24 34  1  0  0  0  0
 24 35  1  0  0  0  0
 25 36  1  0  0  0  0
 25 37  1  0  0  0  0
 25 38  1  0  0  0  0
 26 40  1  0  0  0  0
 26 41  1  0  0  0  0
 26 42  1  0  0  0  0
M  END
> <PUBCHEM_COMPOUND_CID>
5317287

> <PUBCHEM_COMPOUND_CANONICALIZED>
1

> <PUBCHEM_CACTVS_COMPLEXITY>
561

> <PUBCHEM_CACTVS_HBOND_ACCEPTOR>
8

> <PUBCHEM_CACTVS_HBOND_DONOR>
3

> <PUBCHEM_CACTVS_ROTATABLE_BOND>
4

> <PUBCHEM_CACTVS_SUBSKEYS>
AAADceB4PAAAAAAAAAAAAAAAAAAAAAAAAAAwYIAAAAAAAACBQAAAGgAACAAADASAmAIyBoAABgCIAqBSAAICCAAkIAAIiAFGiMgNJzaGNRqCeWOl4BULuQfK7LzOIQABCAAIQABCAAIQABCAAAAAAAAAAA==

> <PUBCHEM_IUPAC_OPENEYE_NAME>
3,5-dihydroxy-2-(3-hydroxy-4-methoxy-phenyl)-6,7-dimethoxy-chromen-4-one

> <PUBCHEM_IUPAC_CAS_NAME>
3,5-dihydroxy-2-(3-hydroxy-4-methoxyphenyl)-6,7-dimethoxy-1-benzopyran-4-one

> <PUBCHEM_IUPAC_NAME_MARKUP>
3,5-dihydroxy-2-(3-hydroxy-4-methoxyphenyl)-6,7-dimethoxychromen-4-one

> <PUBCHEM_IUPAC_NAME>
3,5-dihydroxy-2-(3-hydroxy-4-methoxyphenyl)-6,7-dimethoxychromen-4-one

> <PUBCHEM_IUPAC_SYSTEMATIC_NAME>
6,7-dimethoxy-2-(4-methoxy-3-oxidanyl-phenyl)-3,5-bis(oxidanyl)chromen-4-one

> <PUBCHEM_IUPAC_TRADITIONAL_NAME>
3,5-dihydroxy-2-(3-hydroxy-4-methoxy-phenyl)-6,7-dimethoxy-chromone

> <PUBCHEM_IUPAC_INCHI>
InChI=1S/C18H16O8/c1-23-10-5-4-8(6-9(10)19)17-16(22)14(20)13-11(26-17)7-12(24-2)18(25-3)15(13)21/h4-7,19,21-22H,1-3H3

> <PUBCHEM_IUPAC_INCHIKEY>
ZZEQOHMDRQUMMH-UHFFFAOYSA-N

> <PUBCHEM_XLOGP3_AA>
2.8

> <PUBCHEM_EXACT_MASS>
360.084517

> <PUBCHEM_MOLECULAR_FORMULA>
C18H16O8

> <PUBCHEM_MOLECULAR_WEIGHT>
360.3

> <PUBCHEM_OPENEYE_CAN_SMILES>
COC1=C(C=C(C=C1)C2=C(C(=O)C3=C(C(=C(C=C3O2)OC)OC)O)O)O

> <PUBCHEM_OPENEYE_ISO_SMILES>
COC1=C(C=C(C=C1)C2=C(C(=O)C3=C(C(=C(C=C3O2)OC)OC)O)O)O

> <PUBCHEM_CACTVS_TPSA>
115

> <PUBCHEM_MONOISOTOPIC_WEIGHT>
360.084517

> <PUBCHEM_TOTAL_CHARGE>
0

> <PUBCHEM_HEAVY_ATOM_COUNT>
26

> <PUBCHEM_ATOM_DEF_STEREO_COUNT>
0

> <PUBCHEM_ATOM_UDEF_STEREO_COUNT>
0

> <PUBCHEM_BOND_DEF_STEREO_COUNT>
0

> <PUBCHEM_BOND_UDEF_STEREO_COUNT>
0

> <PUBCHEM_ISOTOPIC_ATOM_COUNT>
0

> <PUBCHEM_COMPONENT_COUNT>
1

> <PUBCHEM_CACTVS_TAUTO_COUNT>
-1

> <PUBCHEM_COORDINATE_TYPE>
1
5
255

> <PUBCHEM_BONDANNOTATIONS>
1  10  8
1  11  8
10  16  8
11  14  8
12  17  8
13  14  8
15  19  8
15  20  8
16  18  8
17  18  8
19  21  8
20  22  8
21  23  8
22  23  8
9  10  8
9  12  8
9  13  8

$$$$
5281793
  -OEChem-04052116542D

 58 60  0     1  0  0  0  0  0999 V2000
    7.7331   -2.0950    0.0000 O   0  0  0  0  0  0  0  0  0  0  0  0
    6.0010   -0.0950    0.0000 O   0  0  0  0  0  0  0  0  0  0  0  0
    4.2690    0.9050    0.0000 O   0  0  0  0  0  0  0  0  0  0  0  0
    2.5369   -0.0950    0.0000 O   0  0  0  0  0  0  0  0  0  0  0  0
    7.7331   -0.0950    0.0000 O   0  0  0  0  0  0  0  0  0  0  0  0
   13.7953   -1.5950    0.0000 O   0  0  0  0  0  0  0  0  0  0  0  0
   13.7953   -3.5950    0.0000 O   0  0  0  0  0  0  0  0  0  0  0  0
    8.5991   -0.5950    0.0000 O   0  0  0  0  0  0  0  0  0  0  0  0
   12.9292    2.9050    0.0000 O   0  0  0  0  0  0  0  0  0  0  0  0
   11.1972    3.9050    0.0000 O   0  0  0  0  0  0  0  0  0  0  0  0
    6.0010   -2.0950    0.0000 C   0  0  0  0  0  0  0  0  0  0  0  0
    6.8671   -1.5950    0.0000 C   0  0  2  0  0  0  0  0  0  0  0  0
    5.1350   -1.5950    0.0000 C   0  0  0  0  0  0  0  0  0  0  0  0
    5.1350   -0.5950    0.0000 C   0  0  0  0  0  0  0  0  0  0  0  0
    4.2690   -2.0950    0.0000 C   0  0  0  0  0  0  0  0  0  0  0  0
   12.0632   -1.5950    0.0000 C   0  0  0  0  0  0  0  0  0  0  0  0
   11.1972   -2.0950    0.0000 C   0  0  0  0  0  0  0  0  0  0  0  0
    6.8671   -0.5950    0.0000 C   0  0  0  0  0  0  0  0  0  0  0  0
    4.2690   -0.0950    0.0000 C   0  0  0  0  0  0  0  0  0  0  0  0
    3.4030   -1.5950    0.0000 C   0  0  0  0  0  0  0  0  0  0  0  0
    3.4030   -0.5950    0.0000 C   0  0  0  0  0  0  0  0  0  0  0  0
   12.9292   -2.0950    0.0000 C   0  0  0  0  0  0  0  0  0  0  0  0
   10.3312   -1.5950    0.0000 C   0  0  0  0  0  0  0  0  0  0  0  0
   11.1972   -3.0950    0.0000 C   0  0  0  0  0  0  0  0  0  0  0  0
   12.0632   -0.5950    0.0000 C   0  0  0  0  0  0  0  0  0  0  0  0
    8.5991   -1.5950    0.0000 C   0  0  0  0  0  0  0  0  0  0  0  0
   12.9292   -3.0950    0.0000 C   0  0  0  0  0  0  0  0  0  0  0  0
    9.4651   -2.0950    0.0000 C   0  0  0  0  0  0  0  0  0  0  0  0
   12.0632   -3.5950    0.0000 C   0  0  0  0  0  0  0  0  0  0  0  0
   11.1972   -0.0950    0.0000 C   0  0  0  0  0  0  0  0  0  0  0  0
   11.1972    0.9050    0.0000 C   0  0  0  0  0  0  0  0  0  0  0  0
   12.0632    1.4050    0.0000 C   0  0  0  0  0  0  0  0  0  0  0  0
   10.3312    1.4050    0.0000 C   0  0  0  0  0  0  0  0  0  0  0  0
   12.0632    2.4050    0.0000 C   0  0  0  0  0  0  0  0  0  0  0  0
   10.3312    2.4050    0.0000 C   0  0  0  0  0  0  0  0  0  0  0  0
   11.1972    2.9050    0.0000 C   0  0  0  0  0  0  0  0  0  0  0  0
    5.6025   -2.5700    0.0000 H   0  0  0  0  0  0  0  0  0  0  0  0
    6.3996   -2.5700    0.0000 H   0  0  0  0  0  0  0  0  0  0  0  0
    7.4040   -1.2850    0.0000 H   0  0  0  0  0  0  0  0  0  0  0  0
    5.6720   -0.2850    0.0000 H   0  0  0  0  0  0  0  0  0  0  0  0
    4.2690   -2.7150    0.0000 H   0  0  0  0  0  0  0  0  0  0  0  0
    2.8660   -1.9050    0.0000 H   0  0  0  0  0  0  0  0  0  0  0  0
   10.3312   -0.9750    0.0000 H   0  0  0  0  0  0  0  0  0  0  0  0
   10.6603   -3.4050    0.0000 H   0  0  0  0  0  0  0  0  0  0  0  0
   12.6002   -0.2850    0.0000 H   0  0  0  0  0  0  0  0  0  0  0  0
    9.4651   -2.7150    0.0000 H   0  0  0  0  0  0  0  0  0  0  0  0
   12.0632   -4.2150    0.0000 H   0  0  0  0  0  0  0  0  0  0  0  0
   10.6603   -0.4050    0.0000 H   0  0  0  0  0  0  0  0  0  0  0  0
   12.6002    1.0950    0.0000 H   0  0  0  0  0  0  0  0  0  0  0  0
    9.7942    1.0950    0.0000 H   0  0  0  0  0  0  0  0  0  0  0  0
    6.0010    0.5250    0.0000 H   0  0  0  0  0  0  0  0  0  0  0  0
    3.7320    1.2150    0.0000 H   0  0  0  0  0  0  0  0  0  0  0  0
    9.7942    2.7150    0.0000 H   0  0  0  0  0  0  0  0  0  0  0  0
    2.0000   -0.4050    0.0000 H   0  0  0  0  0  0  0  0  0  0  0  0
   14.3322   -1.9050    0.0000 H   0  0  0  0  0  0  0  0  0  0  0  0
   13.7953   -4.2150    0.0000 H   0  0  0  0  0  0  0  0  0  0  0  0
   12.9292    3.5250    0.0000 H   0  0  0  0  0  0  0  0  0  0  0  0
   10.6603    4.2150    0.0000 H   0  0  0  0  0  0  0  0  0  0  0  0
 12  1  1  6  0  0  0
  1 26  1  0  0  0  0
  2 18  1  0  0  0  0
  2 51  1  0  0  0  0
  3 19  1  0  0  0  0
  3 52  1  0  0  0  0
  4 21  1  0  0  0  0
  4 54  1  0  0  0  0
  5 18  2  0  0  0  0
  6 22  1  0  0  0  0
  6 55  1  0  0  0  0
  7 27  1  0  0  0  0
  7 56  1  0  0  0  0
  8 26  2  0  0  0  0
  9 34  1  0  0  0  0
  9 57  1  0  0  0  0
 10 36  1  0  0  0  0
 10 58  1  0  0  0  0
 11 12  1  0  0  0  0
 11 13  1  0  0  0  0
 11 37  1  0  0  0  0
 11 38  1  0  0  0  0
 12 18  1  0  0  0  0
 12 39  1  0  0  0  0
 13 14  2  0  0  0  0
 13 15  1  0  0  0  0
 14 19  1  0  0  0  0
 14 40  1  0  0  0  0
 15 20  2  0  0  0  0
 15 41  1  0  0  0  0
 16 17  2  0  0  0  0
 16 22  1  0  0  0  0
 16 25  1  0  0  0  0
 17 23  1  0  0  0  0
 17 24  1  0  0  0  0
 19 21  2  0  0  0  0
 20 21  1  0  0  0  0
 20 42  1  0  0  0  0
 22 27  2  0  0  0  0
 23 28  2  0  0  0  0
 23 43  1  0  0  0  0
 24 29  2  0  0  0  0
 24 44  1  0  0  0  0
 25 30  2  0  0  0  0
 25 45  1  0  0  0  0
 26 28  1  0  0  0  0
 27 29  1  0  0  0  0
 28 46  1  0  0  0  0
 29 47  1  0  0  0  0
 30 31  1  0  0  0  0
 30 48  1  0  0  0  0
 31 32  2  0  0  0  0
 31 33  1  0  0  0  0
 32 34  1  0  0  0  0
 32 49  1  0  0  0  0
 33 35  2  0  0  0  0
 33 50  1  0  0  0  0
 34 36  2  0  0  0  0
 35 36  1  0  0  0  0
 35 53  1  0  0  0  0
M  END
> <PUBCHEM_COMPOUND_CID>
5281793

> <PUBCHEM_COMPOUND_CANONICALIZED>
1

> <PUBCHEM_CACTVS_COMPLEXITY>
798

> <PUBCHEM_CACTVS_HBOND_ACCEPTOR>
10

> <PUBCHEM_CACTVS_HBOND_DONOR>
7

> <PUBCHEM_CACTVS_ROTATABLE_BOND>
9

> <PUBCHEM_CACTVS_SUBSKEYS>
AAADceB4PAAAAAAAAAAAAAAAAAAAAAAAAAAwYMAAAAAAAAABUAAAGgAACAAADBSgmAIwDoAABgCIAiDSCAICAAAgIAAIiAFGiMgJJjKCMRaCcAEkwBELuYeI6LyOoAABAAAYQABAAAIAADCAAAAAAAAAAA==

> <PUBCHEM_IUPAC_OPENEYE_NAME>
(2R)-3-(3,4-dihydroxyphenyl)-2-[(E)-3-[2-[(E)-2-(3,4-dihydroxyphenyl)vinyl]-3,4-dihydroxy-phenyl]prop-2-enoyl]oxy-propanoic acid

> <PUBCHEM_IUPAC_CAS_NAME>
(2R)-3-(3,4-dihydroxyphenyl)-2-[(E)-3-[2-[(E)-2-(3,4-dihydroxyphenyl)ethenyl]-3,4-dihydroxyphenyl]-1-oxoprop-2-enoxy]propanoic acid

> <PUBCHEM_IUPAC_NAME_MARKUP>
(2<I>R</I>)-3-(3,4-dihydroxyphenyl)-2-[(<I>E</I>)-3-[2-[(<I>E</I>)-2-(3,4-dihydroxyphenyl)ethenyl]-3,4-dihydroxyphenyl]prop-2-enoyl]oxypropanoic acid

> <PUBCHEM_IUPAC_NAME>
(2R)-3-(3,4-dihydroxyphenyl)-2-[(E)-3-[2-[(E)-2-(3,4-dihydroxyphenyl)ethenyl]-3,4-dihydroxyphenyl]prop-2-enoyl]oxypropanoic acid

> <PUBCHEM_IUPAC_SYSTEMATIC_NAME>
(2R)-3-[3,4-bis(oxidanyl)phenyl]-2-[(E)-3-[2-[(E)-2-[3,4-bis(oxidanyl)phenyl]ethenyl]-3,4-bis(oxidanyl)phenyl]prop-2-enoyl]oxy-propanoic acid

> <PUBCHEM_IUPAC_TRADITIONAL_NAME>
(2R)-3-(3,4-dihydroxyphenyl)-2-[(E)-3-[2-[(E)-2-(3,4-dihydroxyphenyl)vinyl]-3,4-dihydroxy-phenyl]acryloyl]oxy-propionic acid

> <PUBCHEM_IUPAC_INCHI>
InChI=1S/C26H22O10/c27-18-7-2-14(11-21(18)30)1-6-17-16(4-9-20(29)25(17)33)5-10-24(32)36-23(26(34)35)13-15-3-8-19(28)22(31)12-15/h1-12,23,27-31,33H,13H2,(H,34,35)/b6-1+,10-5+/t23-/m1/s1

> <PUBCHEM_IUPAC_INCHIKEY>
YMGFTDKNIWPMGF-UCPJVGPRSA-N

> <PUBCHEM_XLOGP3_AA>
3.9

> <PUBCHEM_EXACT_MASS>
494.121297

> <PUBCHEM_MOLECULAR_FORMULA>
C26H22O10

> <PUBCHEM_MOLECULAR_WEIGHT>
494.4

> <PUBCHEM_OPENEYE_CAN_SMILES>
C1=CC(=C(C=C1CC(C(=O)O)OC(=O)C=CC2=C(C(=C(C=C2)O)O)C=CC3=CC(=C(C=C3)O)O)O)O

> <PUBCHEM_OPENEYE_ISO_SMILES>
C1=CC(=C(C=C1C[C@H](C(=O)O)OC(=O)/C=C/C2=C(C(=C(C=C2)O)O)/C=C/C3=CC(=C(C=C3)O)O)O)O

> <PUBCHEM_CACTVS_TPSA>
185

> <PUBCHEM_MONOISOTOPIC_WEIGHT>
494.121297

> <PUBCHEM_TOTAL_CHARGE>
0

> <PUBCHEM_HEAVY_ATOM_COUNT>
36

> <PUBCHEM_ATOM_DEF_STEREO_COUNT>
1

> <PUBCHEM_ATOM_UDEF_STEREO_COUNT>
0

> <PUBCHEM_BOND_DEF_STEREO_COUNT>
2

> <PUBCHEM_BOND_UDEF_STEREO_COUNT>
0

> <PUBCHEM_ISOTOPIC_ATOM_COUNT>
0

> <PUBCHEM_COMPONENT_COUNT>
1

> <PUBCHEM_CACTVS_TAUTO_COUNT>
-1

> <PUBCHEM_COORDINATE_TYPE>
1
5
255

> <PUBCHEM_BONDANNOTATIONS>
12  1  6
13  14  8
13  15  8
14  19  8
15  20  8
16  17  8
16  22  8
17  24  8
19  21  8
20  21  8
22  27  8
24  29  8
27  29  8
31  32  8
31  33  8
32  34  8
33  35  8
34  36  8
35  36  8

$$$$
5281757
  -OEChem-04052116542D

 51 54  0     1  0  0  0  0  0999 V2000
    5.1350   -1.1121    0.0000 O   0  0  0  0  0  0  0  0  0  0  0  0
    2.5369   -0.6121    0.0000 O   0  0  0  0  0  0  0  0  0  0  0  0
    2.5369   -2.6121    0.0000 O   0  0  0  0  0  0  0  0  0  0  0  0
    4.2690   -3.6121    0.0000 O   0  0  0  0  0  0  0  0  0  0  0  0
    6.0010   -3.6121    0.0000 O   0  0  0  0  0  0  0  0  0  0  0  0
    6.0290    0.3533    0.0000 O   0  0  0  0  0  0  0  0  0  0  0  0
    2.5369    0.3879    0.0000 O   0  0  0  0  0  0  0  0  0  0  0  0
    4.2690    3.3879    0.0000 O   0  0  0  0  0  0  0  0  0  0  0  0
    6.0174    3.4225    0.0000 O   0  0  0  0  0  0  0  0  0  0  0  0
   10.3914    3.9221    0.0000 O   0  0  0  0  0  0  0  0  0  0  0  0
    3.4030   -1.1121    0.0000 C   0  0  2  0  0  0  0  0  0  0  0  0
    3.4030   -2.1121    0.0000 C   0  0  2  0  0  0  0  0  0  0  0  0
    4.2690   -0.6121    0.0000 C   0  0  2  0  0  0  0  0  0  0  0  0
    4.2690   -2.6121    0.0000 C   0  0  1  0  0  0  0  0  0  0  0  0
    5.1350   -2.1121    0.0000 C   0  0  1  0  0  0  0  0  0  0  0  0
    4.2690    0.3879    0.0000 C   0  0  0  0  0  0  0  0  0  0  0  0
    6.0010   -2.6121    0.0000 C   0  0  0  0  0  0  0  0  0  0  0  0
    5.1350    0.8879    0.0000 C   0  0  0  0  0  0  0  0  0  0  0  0
    3.4030    0.8879    0.0000 C   0  0  0  0  0  0  0  0  0  0  0  0
    5.1350    1.8879    0.0000 C   0  0  0  0  0  0  0  0  0  0  0  0
    3.4030    1.8879    0.0000 C   0  0  0  0  0  0  0  0  0  0  0  0
    4.2690    2.3879    0.0000 C   0  0  0  0  0  0  0  0  0  0  0  0
    6.0290    2.4226    0.0000 C   0  0  0  0  0  0  0  0  0  0  0  0
    6.9350    1.9087    0.0000 C   0  0  0  0  0  0  0  0  0  0  0  0
    6.9350    0.8671    0.0000 C   0  0  0  0  0  0  0  0  0  0  0  0
    7.7991    2.4121    0.0000 C   0  0  0  0  0  0  0  0  0  0  0  0
    7.7953    3.4121    0.0000 C   0  0  0  0  0  0  0  0  0  0  0  0
    8.6671    1.9154    0.0000 C   0  0  0  0  0  0  0  0  0  0  0  0
    8.6594    3.9154    0.0000 C   0  0  0  0  0  0  0  0  0  0  0  0
    9.5312    2.4188    0.0000 C   0  0  0  0  0  0  0  0  0  0  0  0
    9.5273    3.4187    0.0000 C   0  0  0  0  0  0  0  0  0  0  0  0
    2.8660   -1.4221    0.0000 H   0  0  0  0  0  0  0  0  0  0  0  0
    3.4030   -2.7321    0.0000 H   0  0  0  0  0  0  0  0  0  0  0  0
    5.0051   -0.1871    0.0000 H   0  0  0  0  0  0  0  0  0  0  0  0
    4.8059   -2.9221    0.0000 H   0  0  0  0  0  0  0  0  0  0  0  0
    5.6720   -1.8021    0.0000 H   0  0  0  0  0  0  0  0  0  0  0  0
    6.6116   -2.7197    0.0000 H   0  0  0  0  0  0  0  0  0  0  0  0
    6.2131   -2.0295    0.0000 H   0  0  0  0  0  0  0  0  0  0  0  0
    2.0000   -0.9221    0.0000 H   0  0  0  0  0  0  0  0  0  0  0  0
    2.5369   -3.2321    0.0000 H   0  0  0  0  0  0  0  0  0  0  0  0
    3.7320   -3.9221    0.0000 H   0  0  0  0  0  0  0  0  0  0  0  0
    2.8660    2.1979    0.0000 H   0  0  0  0  0  0  0  0  0  0  0  0
    6.5380   -3.9221    0.0000 H   0  0  0  0  0  0  0  0  0  0  0  0
    7.4708    0.5550    0.0000 H   0  0  0  0  0  0  0  0  0  0  0  0
    2.0000    0.6979    0.0000 H   0  0  0  0  0  0  0  0  0  0  0  0
    3.7320    3.6979    0.0000 H   0  0  0  0  0  0  0  0  0  0  0  0
    7.2571    3.7200    0.0000 H   0  0  0  0  0  0  0  0  0  0  0  0
    8.6694    1.2954    0.0000 H   0  0  0  0  0  0  0  0  0  0  0  0
    8.6570    4.5354    0.0000 H   0  0  0  0  0  0  0  0  0  0  0  0
   10.0693    2.1108    0.0000 H   0  0  0  0  0  0  0  0  0  0  0  0
   10.9295    3.6142    0.0000 H   0  0  0  0  0  0  0  0  0  0  0  0
  1 13  1  0  0  0  0
  1 15  1  0  0  0  0
 11  2  1  1  0  0  0
  2 39  1  0  0  0  0
 12  3  1  6  0  0  0
  3 40  1  0  0  0  0
 14  4  1  1  0  0  0
  4 41  1  0  0  0  0
  5 17  1  0  0  0  0
  5 43  1  0  0  0  0
  6 18  1  0  0  0  0
  6 25  1  0  0  0  0
  7 19  1  0  0  0  0
  7 45  1  0  0  0  0
  8 22  1  0  0  0  0
  8 46  1  0  0  0  0
  9 23  2  0  0  0  0
 10 31  1  0  0  0  0
 10 51  1  0  0  0  0
 11 12  1  0  0  0  0
 11 13  1  0  0  0  0
 11 32  1  0  0  0  0
 12 14  1  0  0  0  0
 12 33  1  0  0  0  0
 13 16  1  0  0  0  0
 13 34  1  1  0  0  0
 14 15  1  0  0  0  0
 14 35  1  0  0  0  0
 15 17  1  6  0  0  0
 15 36  1  0  0  0  0
 16 18  1  0  0  0  0
 16 19  2  0  0  0  0
 17 37  1  0  0  0  0
 17 38  1  0  0  0  0
 18 20  2  0  0  0  0
 19 21  1  0  0  0  0
 20 22  1  0  0  0  0
 20 23  1  0  0  0  0
 21 22  2  0  0  0  0
 21 42  1  0  0  0  0
 23 24  1  0  0  0  0
 24 25  2  0  0  0  0
 24 26  1  0  0  0  0
 25 44  1  0  0  0  0
 26 27  2  0  0  0  0
 26 28  1  0  0  0  0
 27 29  1  0  0  0  0
 27 47  1  0  0  0  0
 28 30  2  0  0  0  0
 28 48  1  0  0  0  0
 29 31  2  0  0  0  0
 29 49  1  0  0  0  0
 30 31  1  0  0  0  0
 30 50  1  0  0  0  0
M  END
> <PUBCHEM_COMPOUND_CID>
5281757

> <PUBCHEM_COMPOUND_CANONICALIZED>
1

> <PUBCHEM_CACTVS_COMPLEXITY>
690

> <PUBCHEM_CACTVS_HBOND_ACCEPTOR>
10

> <PUBCHEM_CACTVS_HBOND_DONOR>
7

> <PUBCHEM_CACTVS_ROTATABLE_BOND>
3

> <PUBCHEM_CACTVS_SUBSKEYS>
AAADceB4PAAAAAAAAAAAAAAAAAAAAAAAAAA0YIEAAAAAAACBQAAAGgAACAAADBSgmAIwBoAABgCIAqBSAAACCAAkIAAIiAEGCMgNNzaGNRqCcWAl4BULuYfI7PzOIAACCAAIAABAAAQQABAAAAAAAAAAAA==

> <PUBCHEM_IUPAC_OPENEYE_NAME>
5,7-dihydroxy-3-(4-hydroxyphenyl)-8-[(2S,3R,4R,5S,6R)-3,4,5-trihydroxy-6-(hydroxymethyl)tetrahydropyran-2-yl]chromen-4-one

> <PUBCHEM_IUPAC_CAS_NAME>
5,7-dihydroxy-3-(4-hydroxyphenyl)-8-[(2S,3R,4R,5S,6R)-3,4,5-trihydroxy-6-(hydroxymethyl)-2-oxanyl]-1-benzopyran-4-one

> <PUBCHEM_IUPAC_NAME_MARKUP>
5,7-dihydroxy-3-(4-hydroxyphenyl)-8-[(2<I>S</I>,3<I>R</I>,4<I>R</I>,5<I>S</I>,6<I>R</I>)-3,4,5-trihydroxy-6-(hydroxymethyl)oxan-2-yl]chromen-4-one

> <PUBCHEM_IUPAC_NAME>
5,7-dihydroxy-3-(4-hydroxyphenyl)-8-[(2S,3R,4R,5S,6R)-3,4,5-trihydroxy-6-(hydroxymethyl)oxan-2-yl]chromen-4-one

> <PUBCHEM_IUPAC_SYSTEMATIC_NAME>
8-[(2S,3R,4R,5S,6R)-6-(hydroxymethyl)-3,4,5-tris(oxidanyl)oxan-2-yl]-3-(4-hydroxyphenyl)-5,7-bis(oxidanyl)chromen-4-one

> <PUBCHEM_IUPAC_TRADITIONAL_NAME>
5,7-dihydroxy-3-(4-hydroxyphenyl)-8-[(2S,3R,4R,5S,6R)-3,4,5-trihydroxy-6-methylol-tetrahydropyran-2-yl]chromone

> <PUBCHEM_IUPAC_INCHI>
InChI=1S/C21H20O10/c22-6-13-17(27)18(28)19(29)21(31-13)15-12(25)5-11(24)14-16(26)10(7-30-20(14)15)8-1-3-9(23)4-2-8/h1-5,7,13,17-19,21-25,27-29H,6H2/t13-,17-,18+,19-,21+/m1/s1

> <PUBCHEM_IUPAC_INCHIKEY>
HIWJJOYYZFELEZ-FFYOZGDPSA-N

> <PUBCHEM_XLOGP3_AA>
0.2

> <PUBCHEM_EXACT_MASS>
432.105647

> <PUBCHEM_MOLECULAR_FORMULA>
C21H20O10

> <PUBCHEM_MOLECULAR_WEIGHT>
432.4

> <PUBCHEM_OPENEYE_CAN_SMILES>
C1=CC(=CC=C1C2=COC3=C(C2=O)C(=CC(=C3C4C(C(C(C(O4)CO)O)O)O)O)O)O

> <PUBCHEM_OPENEYE_ISO_SMILES>
C1=CC(=CC=C1C2=COC3=C(C2=O)C(=CC(=C3[C@H]4[C@@H]([C@H]([C@@H]([C@H](O4)CO)O)O)O)O)O)O

> <PUBCHEM_CACTVS_TPSA>
177

> <PUBCHEM_MONOISOTOPIC_WEIGHT>
432.105647

> <PUBCHEM_TOTAL_CHARGE>
0

> <PUBCHEM_HEAVY_ATOM_COUNT>
31

> <PUBCHEM_ATOM_DEF_STEREO_COUNT>
5

> <PUBCHEM_ATOM_UDEF_STEREO_COUNT>
0

> <PUBCHEM_BOND_DEF_STEREO_COUNT>
0

> <PUBCHEM_BOND_UDEF_STEREO_COUNT>
0

> <PUBCHEM_ISOTOPIC_ATOM_COUNT>
0

> <PUBCHEM_COMPONENT_COUNT>
1

> <PUBCHEM_CACTVS_TAUTO_COUNT>
-1

> <PUBCHEM_COORDINATE_TYPE>
1
5
255

> <PUBCHEM_BONDANNOTATIONS>
13  34  5
15  17  6
16  18  8
16  19  8
18  20  8
19  21  8
11  2  5
20  22  8
20  23  8
21  22  8
23  24  8
24  25  8
26  27  8
26  28  8
27  29  8
28  30  8
29  31  8
12  3  6
30  31  8
14  4  5
6  18  8
6  25  8

$$$$
5281616
  -OEChem-04052116542D

 30 32  0     0  0  0  0  0  0999 V2000
    6.0682   -0.9254    0.0000 O   0  0  0  0  0  0  0  0  0  0  0  0
    7.8003    1.0746    0.0000 O   0  0  0  0  0  0  0  0  0  0  0  0
    4.3198    2.1092    0.0000 O   0  0  0  0  0  0  0  0  0  0  0  0
    6.0682    2.0746    0.0000 O   0  0  0  0  0  0  0  0  0  0  0  0
    2.5381   -0.9495    0.0000 O   0  0  0  0  0  0  0  0  0  0  0  0
    5.2022    0.5746    0.0000 C   0  0  0  0  0  0  0  0  0  0  0  0
    5.2022   -0.4254    0.0000 C   0  0  0  0  0  0  0  0  0  0  0  0
    6.9343   -0.4254    0.0000 C   0  0  0  0  0  0  0  0  0  0  0  0
    6.0682    1.0746    0.0000 C   0  0  0  0  0  0  0  0  0  0  0  0
    6.9343    0.5746    0.0000 C   0  0  0  0  0  0  0  0  0  0  0  0
    7.8003   -0.9254    0.0000 C   0  0  0  0  0  0  0  0  0  0  0  0
    4.3083    1.1093    0.0000 C   0  0  0  0  0  0  0  0  0  0  0  0
    4.3083   -0.9601    0.0000 C   0  0  0  0  0  0  0  0  0  0  0  0
    3.4022   -0.4462    0.0000 C   0  0  0  0  0  0  0  0  0  0  0  0
    3.4022    0.5954    0.0000 C   0  0  0  0  0  0  0  0  0  0  0  0
    7.8003   -1.9254    0.0000 C   0  0  0  0  0  0  0  0  0  0  0  0
    8.6663   -0.4254    0.0000 C   0  0  0  0  0  0  0  0  0  0  0  0
    8.6663   -2.4254    0.0000 C   0  0  0  0  0  0  0  0  0  0  0  0
    9.5323   -0.9254    0.0000 C   0  0  0  0  0  0  0  0  0  0  0  0
    9.5323   -1.9254    0.0000 C   0  0  0  0  0  0  0  0  0  0  0  0
    4.3154   -1.5800    0.0000 H   0  0  0  0  0  0  0  0  0  0  0  0
    2.8665    0.9075    0.0000 H   0  0  0  0  0  0  0  0  0  0  0  0
    7.2634   -2.2354    0.0000 H   0  0  0  0  0  0  0  0  0  0  0  0
    8.6663    0.1946    0.0000 H   0  0  0  0  0  0  0  0  0  0  0  0
    8.6663   -3.0454    0.0000 H   0  0  0  0  0  0  0  0  0  0  0  0
   10.0693   -0.6154    0.0000 H   0  0  0  0  0  0  0  0  0  0  0  0
   10.0693   -2.2354    0.0000 H   0  0  0  0  0  0  0  0  0  0  0  0
    7.8003    1.6946    0.0000 H   0  0  0  0  0  0  0  0  0  0  0  0
    3.7865    2.4254    0.0000 H   0  0  0  0  0  0  0  0  0  0  0  0
    2.0000   -0.6416    0.0000 H   0  0  0  0  0  0  0  0  0  0  0  0
  1  7  1  0  0  0  0
  1  8  1  0  0  0  0
  2 10  1  0  0  0  0
  2 28  1  0  0  0  0
  3 12  1  0  0  0  0
  3 29  1  0  0  0  0
  4  9  2  0  0  0  0
  5 14  1  0  0  0  0
  5 30  1  0  0  0  0
  6  7  1  0  0  0  0
  6  9  1  0  0  0  0
  6 12  2  0  0  0  0
  7 13  2  0  0  0  0
  8 10  2  0  0  0  0
  8 11  1  0  0  0  0
  9 10  1  0  0  0  0
 11 16  2  0  0  0  0
 11 17  1  0  0  0  0
 12 15  1  0  0  0  0
 13 14  1  0  0  0  0
 13 21  1  0  0  0  0
 14 15  2  0  0  0  0
 15 22  1  0  0  0  0
 16 18  1  0  0  0  0
 16 23  1  0  0  0  0
 17 19  2  0  0  0  0
 17 24  1  0  0  0  0
 18 20  2  0  0  0  0
 18 25  1  0  0  0  0
 19 20  1  0  0  0  0
 19 26  1  0  0  0  0
 20 27  1  0  0  0  0
M  END
> <PUBCHEM_COMPOUND_CID>
5281616

> <PUBCHEM_COMPOUND_CANONICALIZED>
1

> <PUBCHEM_CACTVS_COMPLEXITY>
424

> <PUBCHEM_CACTVS_HBOND_ACCEPTOR>
5

> <PUBCHEM_CACTVS_HBOND_DONOR>
3

> <PUBCHEM_CACTVS_ROTATABLE_BOND>
1

> <PUBCHEM_CACTVS_SUBSKEYS>
AAADccBwOAAAAAAAAAAAAAAAAAAAAAAAAAAwYIAAAAAAAACBQAAAGgAACAAADASAmAAwBoAABgCIAqBSAAICCAAkIAAIiAFGCMgMJzaGNRqCeWCl4BUIuQfI7KzOIAAACAAIAABAAAAQABAAAAAAAAAAAA==

> <PUBCHEM_IUPAC_OPENEYE_NAME>
3,5,7-trihydroxy-2-phenyl-chromen-4-one

> <PUBCHEM_IUPAC_CAS_NAME>
3,5,7-trihydroxy-2-phenyl-1-benzopyran-4-one

> <PUBCHEM_IUPAC_NAME_MARKUP>
3,5,7-trihydroxy-2-phenylchromen-4-one

> <PUBCHEM_IUPAC_NAME>
3,5,7-trihydroxy-2-phenylchromen-4-one

> <PUBCHEM_IUPAC_SYSTEMATIC_NAME>
3,5,7-tris(oxidanyl)-2-phenyl-chromen-4-one

> <PUBCHEM_IUPAC_TRADITIONAL_NAME>
3,5,7-trihydroxy-2-phenyl-chromone

> <PUBCHEM_IUPAC_INCHI>
InChI=1S/C15H10O5/c16-9-6-10(17)12-11(7-9)20-15(14(19)13(12)18)8-4-2-1-3-5-8/h1-7,16-17,19H

> <PUBCHEM_IUPAC_INCHIKEY>
VCCRNZQBSJXYJD-UHFFFAOYSA-N

> <PUBCHEM_XLOGP3>
2.3

> <PUBCHEM_EXACT_MASS>
270.052823

> <PUBCHEM_MOLECULAR_FORMULA>
C15H10O5

> <PUBCHEM_MOLECULAR_WEIGHT>
270.24

> <PUBCHEM_OPENEYE_CAN_SMILES>
C1=CC=C(C=C1)C2=C(C(=O)C3=C(C=C(C=C3O2)O)O)O

> <PUBCHEM_OPENEYE_ISO_SMILES>
C1=CC=C(C=C1)C2=C(C(=O)C3=C(C=C(C=C3O2)O)O)O

> <PUBCHEM_CACTVS_TPSA>
87

> <PUBCHEM_MONOISOTOPIC_WEIGHT>
270.052823

> <PUBCHEM_TOTAL_CHARGE>
0

> <PUBCHEM_HEAVY_ATOM_COUNT>
20

> <PUBCHEM_ATOM_DEF_STEREO_COUNT>
0

> <PUBCHEM_ATOM_UDEF_STEREO_COUNT>
0

> <PUBCHEM_BOND_DEF_STEREO_COUNT>
0

> <PUBCHEM_BOND_UDEF_STEREO_COUNT>
0

> <PUBCHEM_ISOTOPIC_ATOM_COUNT>
0

> <PUBCHEM_COMPONENT_COUNT>
1

> <PUBCHEM_CACTVS_TAUTO_COUNT>
-1

> <PUBCHEM_COORDINATE_TYPE>
1
5
255

> <PUBCHEM_BONDANNOTATIONS>
1  7  8
1  8  8
11  16  8
11  17  8
12  15  8
13  14  8
14  15  8
16  18  8
17  19  8
18  20  8
19  20  8
6  12  8
6  7  8
6  9  8
7  13  8
8  10  8
9  10  8

$$$$
5280961
  -OEChem-04052116542D

 30 32  0     0  0  0  0  0  0999 V2000
    5.5301   -1.4279    0.0000 O   0  0  0  0  0  0  0  0  0  0  0  0
    3.7817    1.6067    0.0000 O   0  0  0  0  0  0  0  0  0  0  0  0
    5.5301    1.5721    0.0000 O   0  0  0  0  0  0  0  0  0  0  0  0
    2.0000   -1.4521    0.0000 O   0  0  0  0  0  0  0  0  0  0  0  0
    9.8602    2.0721    0.0000 O   0  0  0  0  0  0  0  0  0  0  0  0
    4.6641    0.0721    0.0000 C   0  0  0  0  0  0  0  0  0  0  0  0
    6.3961    0.0721    0.0000 C   0  0  0  0  0  0  0  0  0  0  0  0
    4.6641   -0.9279    0.0000 C   0  0  0  0  0  0  0  0  0  0  0  0
    5.5301    0.5721    0.0000 C   0  0  0  0  0  0  0  0  0  0  0  0
    7.2622    0.5721    0.0000 C   0  0  0  0  0  0  0  0  0  0  0  0
    3.7702    0.6067    0.0000 C   0  0  0  0  0  0  0  0  0  0  0  0
    6.3961   -0.9279    0.0000 C   0  0  0  0  0  0  0  0  0  0  0  0
    3.7702   -1.4626    0.0000 C   0  0  0  0  0  0  0  0  0  0  0  0
    2.8641    0.0929    0.0000 C   0  0  0  0  0  0  0  0  0  0  0  0
    2.8641   -0.9487    0.0000 C   0  0  0  0  0  0  0  0  0  0  0  0
    7.2622    1.5721    0.0000 C   0  0  0  0  0  0  0  0  0  0  0  0
    8.1282    0.0721    0.0000 C   0  0  0  0  0  0  0  0  0  0  0  0
    8.1282    2.0721    0.0000 C   0  0  0  0  0  0  0  0  0  0  0  0
    8.9942    0.5721    0.0000 C   0  0  0  0  0  0  0  0  0  0  0  0
    8.9942    1.5721    0.0000 C   0  0  0  0  0  0  0  0  0  0  0  0
    6.9331   -1.2379    0.0000 H   0  0  0  0  0  0  0  0  0  0  0  0
    3.7773   -2.0826    0.0000 H   0  0  0  0  0  0  0  0  0  0  0  0
    2.3284    0.4050    0.0000 H   0  0  0  0  0  0  0  0  0  0  0  0
    6.7252    1.8821    0.0000 H   0  0  0  0  0  0  0  0  0  0  0  0
    8.1282   -0.5479    0.0000 H   0  0  0  0  0  0  0  0  0  0  0  0
    8.1282    2.6921    0.0000 H   0  0  0  0  0  0  0  0  0  0  0  0
    9.5312    0.2621    0.0000 H   0  0  0  0  0  0  0  0  0  0  0  0
    3.2484    1.9229    0.0000 H   0  0  0  0  0  0  0  0  0  0  0  0
    2.0024   -2.0721    0.0000 H   0  0  0  0  0  0  0  0  0  0  0  0
   10.3972    1.7621    0.0000 H   0  0  0  0  0  0  0  0  0  0  0  0
  1  8  1  0  0  0  0
  1 12  1  0  0  0  0
  2 11  1  0  0  0  0
  2 28  1  0  0  0  0
  3  9  2  0  0  0  0
  4 15  1  0  0  0  0
  4 29  1  0  0  0  0
  5 20  1  0  0  0  0
  5 30  1  0  0  0  0
  6  8  1  0  0  0  0
  6  9  1  0  0  0  0
  6 11  2  0  0  0  0
  7  9  1  0  0  0  0
  7 10  1  0  0  0  0
  7 12  2  0  0  0  0
  8 13  2  0  0  0  0
 10 16  2  0  0  0  0
 10 17  1  0  0  0  0
 11 14  1  0  0  0  0
 12 21  1  0  0  0  0
 13 15  1  0  0  0  0
 13 22  1  0  0  0  0
 14 15  2  0  0  0  0
 14 23  1  0  0  0  0
 16 18  1  0  0  0  0
 16 24  1  0  0  0  0
 17 19  2  0  0  0  0
 17 25  1  0  0  0  0
 18 20  2  0  0  0  0
 18 26  1  0  0  0  0
 19 20  1  0  0  0  0
 19 27  1  0  0  0  0
M  END
> <PUBCHEM_COMPOUND_CID>
5280961

> <PUBCHEM_COMPOUND_CANONICALIZED>
1

> <PUBCHEM_CACTVS_COMPLEXITY>
411

> <PUBCHEM_CACTVS_HBOND_ACCEPTOR>
5

> <PUBCHEM_CACTVS_HBOND_DONOR>
3

> <PUBCHEM_CACTVS_ROTATABLE_BOND>
1

> <PUBCHEM_CACTVS_SUBSKEYS>
AAADccBwOAAAAAAAAAAAAAAAAAAAAAAAAAAwYIAAAAAAAACBQAAAGgAACAAADASgmAIwBoAABgCIAqBSAAACCAAkIAAIiAEGCMgMJzaGNRqAcWAl4BUIuYeI7PzOIAAACAAIAABAAAAQABAAAAAAAAAAAA==

> <PUBCHEM_IUPAC_OPENEYE_NAME>
5,7-dihydroxy-3-(4-hydroxyphenyl)chromen-4-one

> <PUBCHEM_IUPAC_CAS_NAME>
5,7-dihydroxy-3-(4-hydroxyphenyl)-1-benzopyran-4-one

> <PUBCHEM_IUPAC_NAME_MARKUP>
5,7-dihydroxy-3-(4-hydroxyphenyl)chromen-4-one

> <PUBCHEM_IUPAC_NAME>
5,7-dihydroxy-3-(4-hydroxyphenyl)chromen-4-one

> <PUBCHEM_IUPAC_SYSTEMATIC_NAME>
3-(4-hydroxyphenyl)-5,7-bis(oxidanyl)chromen-4-one

> <PUBCHEM_IUPAC_TRADITIONAL_NAME>
5,7-dihydroxy-3-(4-hydroxyphenyl)chromone

> <PUBCHEM_IUPAC_INCHI>
InChI=1S/C15H10O5/c16-9-3-1-8(2-4-9)11-7-20-13-6-10(17)5-12(18)14(13)15(11)19/h1-7,16-18H

> <PUBCHEM_IUPAC_INCHIKEY>
TZBJGXHYKVUXJN-UHFFFAOYSA-N

> <PUBCHEM_XLOGP3_AA>
2.7

> <PUBCHEM_EXACT_MASS>
270.052823

> <PUBCHEM_MOLECULAR_FORMULA>
C15H10O5

> <PUBCHEM_MOLECULAR_WEIGHT>
270.24

> <PUBCHEM_OPENEYE_CAN_SMILES>
C1=CC(=CC=C1C2=COC3=CC(=CC(=C3C2=O)O)O)O

> <PUBCHEM_OPENEYE_ISO_SMILES>
C1=CC(=CC=C1C2=COC3=CC(=CC(=C3C2=O)O)O)O

> <PUBCHEM_CACTVS_TPSA>
87

> <PUBCHEM_MONOISOTOPIC_WEIGHT>
270.052823

> <PUBCHEM_TOTAL_CHARGE>
0

> <PUBCHEM_HEAVY_ATOM_COUNT>
20

> <PUBCHEM_ATOM_DEF_STEREO_COUNT>
0

> <PUBCHEM_ATOM_UDEF_STEREO_COUNT>
0

> <PUBCHEM_BOND_DEF_STEREO_COUNT>
0

> <PUBCHEM_BOND_UDEF_STEREO_COUNT>
0

> <PUBCHEM_ISOTOPIC_ATOM_COUNT>
0

> <PUBCHEM_COMPONENT_COUNT>
1

> <PUBCHEM_CACTVS_TAUTO_COUNT>
-1

> <PUBCHEM_COORDINATE_TYPE>
1
5
255

> <PUBCHEM_BONDANNOTATIONS>
1  12  8
1  8  8
10  16  8
10  17  8
11  14  8
13  15  8
14  15  8
16  18  8
17  19  8
18  20  8
19  20  8
6  11  8
6  8  8
6  9  8
7  12  8
7  9  8
8  13  8

$$$$
4586437
  -OEChem-04052116542D

 90 96  0     1  0  0  0  0  0999 V2000
    7.7331   -3.9635    0.0000 O   0  0  0  0  0  0  0  0  0  0  0  0
   12.3658    1.0284    0.0000 O   0  0  0  0  0  0  0  0  0  0  0  0
    9.4651   -3.9635    0.0000 O   0  0  0  0  0  0  0  0  0  0  0  0
    6.0010   -2.9635    0.0000 O   0  0  0  0  0  0  0  0  0  0  0  0
    9.4929   -0.8556    0.0000 O   0  0  0  0  0  0  0  0  0  0  0  0
    6.0010   -5.9635    0.0000 O   0  0  0  0  0  0  0  0  0  0  0  0
    7.7331   -6.9635    0.0000 O   0  0  0  0  0  0  0  0  0  0  0  0
   14.4485    2.7604    0.0000 O   0  0  0  0  0  0  0  0  0  0  0  0
    9.4651   -5.9635    0.0000 O   0  0  0  0  0  0  0  0  0  0  0  0
    4.2690   -2.9635    0.0000 O   0  0  0  0  0  0  0  0  0  0  0  0
    6.0010   -0.9635    0.0000 O   0  0  0  0  0  0  0  0  0  0  0  0
    4.2690    0.0365    0.0000 O   0  0  0  0  0  0  0  0  0  0  0  0
   10.8859    3.6380    0.0000 O   0  0  0  0  0  0  0  0  0  0  0  0
    2.5369   -0.9635    0.0000 O   0  0  0  0  0  0  0  0  0  0  0  0
   12.3680    6.4055    0.0000 O   0  0  0  0  0  0  0  0  0  0  0  0
   14.4596    6.4055    0.0000 O   0  0  0  0  0  0  0  0  0  0  0  0
    6.8671   -4.4635    0.0000 C   0  0  3  0  0  0  0  0  0  0  0  0
    6.8671   -5.4635    0.0000 C   0  0  3  0  0  0  0  0  0  0  0  0
    7.7331   -5.9635    0.0000 C   0  0  3  0  0  0  0  0  0  0  0  0
    8.5991   -5.4635    0.0000 C   0  0  3  0  0  0  0  0  0  0  0  0
    8.5991   -4.4635    0.0000 C   0  0  3  0  0  0  0  0  0  0  0  0
   12.3791    2.7604    0.0000 C   0  0  3  0  0  0  0  0  0  0  0  0
   12.8725    1.8906    0.0000 C   0  0  3  0  0  0  0  0  0  0  0  0
    6.0010   -3.9635    0.0000 C   0  0  0  0  0  0  0  0  0  0  0  0
   10.8520    0.1301    0.0000 C   0  0  0  0  0  0  0  0  0  0  0  0
   10.3312   -1.4635    0.0000 C   0  0  3  0  0  0  0  0  0  0  0  0
   11.1694   -0.8556    0.0000 C   0  0  0  0  0  0  0  0  0  0  0  0
   11.3658    1.0361    0.0000 C   0  0  0  0  0  0  0  0  0  0  0  0
   10.8725    1.9060    0.0000 C   0  0  0  0  0  0  0  0  0  0  0  0
   11.3792    2.7681    0.0000 C   0  0  0  0  0  0  0  0  0  0  0  0
   12.8930    3.6665    0.0000 C   0  0  0  0  0  0  0  0  0  0  0  0
    5.1350   -2.4635    0.0000 C   0  0  3  0  0  0  0  0  0  0  0  0
   13.9138    1.8665    0.0000 C   0  0  0  0  0  0  0  0  0  0  0  0
    5.1350   -1.4635    0.0000 C   0  0  3  0  0  0  0  0  0  0  0  0
    9.8104    0.1301    0.0000 C   0  0  0  0  0  0  0  0  0  0  0  0
    4.2690   -0.9635    0.0000 C   0  0  3  0  0  0  0  0  0  0  0  0
   10.3312   -2.4635    0.0000 C   0  0  0  0  0  0  0  0  0  0  0  0
    9.4651   -2.9635    0.0000 C   0  0  0  0  0  0  0  0  0  0  0  0
    3.4030   -1.4635    0.0000 C   0  0  3  0  0  0  0  0  0  0  0  0
   13.9346    3.6665    0.0000 C   0  0  0  0  0  0  0  0  0  0  0  0
    9.8312    1.9301    0.0000 C   0  0  0  0  0  0  0  0  0  0  0  0
    3.4030   -2.4635    0.0000 C   0  0  0  0  0  0  0  0  0  0  0  0
    9.2965    1.0361    0.0000 C   0  0  0  0  0  0  0  0  0  0  0  0
   12.3361    4.5976    0.0000 C   0  0  0  0  0  0  0  0  0  0  0  0
   14.4915    4.5976    0.0000 C   0  0  0  0  0  0  0  0  0  0  0  0
   12.8713    5.5414    0.0000 C   0  0  0  0  0  0  0  0  0  0  0  0
   11.1972   -2.9635    0.0000 C   0  0  0  0  0  0  0  0  0  0  0  0
   13.9563    5.5414    0.0000 C   0  0  0  0  0  0  0  0  0  0  0  0
   12.8646    7.2735    0.0000 C   0  0  0  0  0  0  0  0  0  0  0  0
   15.4596    6.4017    0.0000 C   0  0  0  0  0  0  0  0  0  0  0  0
    6.8671   -3.8435    0.0000 H   0  0  0  0  0  0  0  0  0  0  0  0
    6.8671   -6.0835    0.0000 H   0  0  0  0  0  0  0  0  0  0  0  0
    7.1962   -6.2735    0.0000 H   0  0  0  0  0  0  0  0  0  0  0  0
    8.5991   -6.0835    0.0000 H   0  0  0  0  0  0  0  0  0  0  0  0
    8.5991   -3.8435    0.0000 H   0  0  0  0  0  0  0  0  0  0  0  0
   12.0691    3.2974    0.0000 H   0  0  0  0  0  0  0  0  0  0  0  0
   13.1741    1.3489    0.0000 H   0  0  0  0  0  0  0  0  0  0  0  0
    5.3905   -3.8558    0.0000 H   0  0  0  0  0  0  0  0  0  0  0  0
    5.7890   -4.5461    0.0000 H   0  0  0  0  0  0  0  0  0  0  0  0
    9.7789   -1.7452    0.0000 H   0  0  0  0  0  0  0  0  0  0  0  0
   11.4786   -1.3929    0.0000 H   0  0  0  0  0  0  0  0  0  0  0  0
   11.7363   -0.6045    0.0000 H   0  0  0  0  0  0  0  0  0  0  0  0
    5.6720   -2.1535    0.0000 H   0  0  0  0  0  0  0  0  0  0  0  0
   13.7936    1.2582    0.0000 H   0  0  0  0  0  0  0  0  0  0  0  0
   14.4925    1.6440    0.0000 H   0  0  0  0  0  0  0  0  0  0  0  0
    5.1350   -0.8435    0.0000 H   0  0  0  0  0  0  0  0  0  0  0  0
    3.7320   -0.6535    0.0000 H   0  0  0  0  0  0  0  0  0  0  0  0
    3.9399   -1.7735    0.0000 H   0  0  0  0  0  0  0  0  0  0  0  0
    9.2531   -2.3808    0.0000 H   0  0  0  0  0  0  0  0  0  0  0  0
    8.8546   -3.0711    0.0000 H   0  0  0  0  0  0  0  0  0  0  0  0
    2.7924   -2.3558    0.0000 H   0  0  0  0  0  0  0  0  0  0  0  0
    3.1909   -3.0461    0.0000 H   0  0  0  0  0  0  0  0  0  0  0  0
    9.5316    2.4729    0.0000 H   0  0  0  0  0  0  0  0  0  0  0  0
    8.6765    1.0433    0.0000 H   0  0  0  0  0  0  0  0  0  0  0  0
    5.4641   -5.6535    0.0000 H   0  0  0  0  0  0  0  0  0  0  0  0
    7.1962   -7.2735    0.0000 H   0  0  0  0  0  0  0  0  0  0  0  0
   10.0021   -5.6535    0.0000 H   0  0  0  0  0  0  0  0  0  0  0  0
   11.7161    4.5905    0.0000 H   0  0  0  0  0  0  0  0  0  0  0  0
   15.1115    4.5905    0.0000 H   0  0  0  0  0  0  0  0  0  0  0  0
   11.1972   -3.5835    0.0000 H   0  0  0  0  0  0  0  0  0  0  0  0
   11.7341   -2.6535    0.0000 H   0  0  0  0  0  0  0  0  0  0  0  0
    6.0010   -0.3435    0.0000 H   0  0  0  0  0  0  0  0  0  0  0  0
    3.7320    0.3465    0.0000 H   0  0  0  0  0  0  0  0  0  0  0  0
    2.0000   -1.2735    0.0000 H   0  0  0  0  0  0  0  0  0  0  0  0
   13.4028    6.9655    0.0000 H   0  0  0  0  0  0  0  0  0  0  0  0
   13.1726    7.8116    0.0000 H   0  0  0  0  0  0  0  0  0  0  0  0
   12.3265    7.5814    0.0000 H   0  0  0  0  0  0  0  0  0  0  0  0
   15.4572    5.7817    0.0000 H   0  0  0  0  0  0  0  0  0  0  0  0
   16.0796    6.3993    0.0000 H   0  0  0  0  0  0  0  0  0  0  0  0
   15.4620    7.0217    0.0000 H   0  0  0  0  0  0  0  0  0  0  0  0
  1 17  1  0  0  0  0
  1 21  1  0  0  0  0
  2 23  1  0  0  0  0
  2 28  1  0  0  0  0
  3 21  1  0  0  0  0
  3 38  1  0  0  0  0
  4 24  1  0  0  0  0
  4 32  1  0  0  0  0
  5 26  1  0  0  0  0
  5 35  1  0  0  0  0
  6 18  1  0  0  0  0
  6 75  1  0  0  0  0
  7 19  1  0  0  0  0
  7 76  1  0  0  0  0
  8 33  1  0  0  0  0
  8 40  1  0  0  0  0
  9 20  1  0  0  0  0
  9 77  1  0  0  0  0
 10 32  1  0  0  0  0
 10 42  1  0  0  0  0
 11 34  1  0  0  0  0
 11 82  1  0  0  0  0
 12 36  1  0  0  0  0
 12 83  1  0  0  0  0
 13 30  2  0  0  0  0
 14 39  1  0  0  0  0
 14 84  1  0  0  0  0
 15 46  1  0  0  0  0
 15 49  1  0  0  0  0
 16 48  1  0  0  0  0
 16 50  1  0  0  0  0
 17 18  1  0  0  0  0
 17 24  1  0  0  0  0
 17 51  1  0  0  0  0
 18 19  1  0  0  0  0
 18 52  1  0  0  0  0
 19 20  1  0  0  0  0
 19 53  1  0  0  0  0
 20 21  1  0  0  0  0
 20 54  1  0  0  0  0
 21 55  1  0  0  0  0
 22 23  1  0  0  0  0
 22 30  1  0  0  0  0
 22 31  1  0  0  0  0
 22 56  1  0  0  0  0
 23 33  1  0  0  0  0
 23 57  1  0  0  0  0
 24 58  1  0  0  0  0
 24 59  1  0  0  0  0
 25 27  1  0  0  0  0
 25 28  1  0  0  0  0
 25 35  2  0  0  0  0
 26 27  1  0  0  0  0
 26 37  1  0  0  0  0
 26 60  1  0  0  0  0
 27 61  1  0  0  0  0
 27 62  1  0  0  0  0
 28 29  2  0  0  0  0
 29 30  1  0  0  0  0
 29 41  1  0  0  0  0
 31 40  1  0  0  0  0
 31 44  2  0  0  0  0
 32 34  1  0  0  0  0
 32 63  1  0  0  0  0
 33 64  1  0  0  0  0
 33 65  1  0  0  0  0
 34 36  1  0  0  0  0
 34 66  1  0  0  0  0
 35 43  1  0  0  0  0
 36 39  1  0  0  0  0
 36 67  1  0  0  0  0
 37 38  1  0  0  0  0
 37 47  2  0  0  0  0
 38 69  1  0  0  0  0
 38 70  1  0  0  0  0
 39 42  1  0  0  0  0
 39 68  1  0  0  0  0
 40 45  2  0  0  0  0
 41 43  2  0  0  0  0
 41 73  1  0  0  0  0
 42 71  1  0  0  0  0
 42 72  1  0  0  0  0
 43 74  1  0  0  0  0
 44 46  1  0  0  0  0
 44 78  1  0  0  0  0
 45 48  1  0  0  0  0
 45 79  1  0  0  0  0
 46 48  2  0  0  0  0
 47 80  1  0  0  0  0
 47 81  1  0  0  0  0
 49 85  1  0  0  0  0
 49 86  1  0  0  0  0
 49 87  1  0  0  0  0
 50 88  1  0  0  0  0
 50 89  1  0  0  0  0
 50 90  1  0  0  0  0
M  END
> <PUBCHEM_COMPOUND_CID>
4586437

> <PUBCHEM_COMPOUND_CANONICALIZED>
1

> <PUBCHEM_CACTVS_COMPLEXITY>
1210

> <PUBCHEM_CACTVS_HBOND_ACCEPTOR>
16

> <PUBCHEM_CACTVS_HBOND_DONOR>
6

> <PUBCHEM_CACTVS_ROTATABLE_BOND>
9

> <PUBCHEM_CACTVS_SUBSKEYS>
AAADcfB8PgAAAAAAAAAAAAAAAAAAASAAAAA0aJEiAAAAAEiRQAAAGgAACAAADRSwmAMyDoAABgCIAqBSAAACCAAkIAAIiAEGiMgdNzaENRqieWKl4BUPqYfK7PzOoQADCAAIQABCAAYQABCAAAAAAAAAAA==

> <PUBCHEM_IUPAC_OPENEYE_NAME>
16,17-dimethoxy-6-[1-[[3,4,5-trihydroxy-6-[(3,4,5-trihydroxytetrahydropyran-2-yl)oxymethyl]tetrahydropyran-2-yl]oxymethyl]vinyl]-2,7,20-trioxapentacyclo[11.8.0.03,11.04,8.014,19]henicosa-3(11),4(8),9,14,16,18-hexaen-12-one

> <PUBCHEM_IUPAC_CAS_NAME>
16,17-dimethoxy-6-[3-[[3,4,5-trihydroxy-6-[(3,4,5-trihydroxy-2-oxanyl)oxymethyl]-2-oxanyl]oxy]prop-1-en-2-yl]-2,7,20-trioxapentacyclo[11.8.0.03,11.04,8.014,19]heneicosa-3(11),4(8),9,14,16,18-hexaen-12-one

> <PUBCHEM_IUPAC_NAME_MARKUP>
16,17-dimethoxy-6-[3-[3,4,5-trihydroxy-6-[(3,4,5-trihydroxyoxan-2-yl)oxymethyl]oxan-2-yl]oxyprop-1-en-2-yl]-2,7,20-trioxapentacyclo[11.8.0.0<SUP>3,11</SUP>.0<SUP>4,8</SUP>.0<SUP>14,19</SUP>]henicosa-3(11),4(8),9,14,16,18-hexaen-12-one

> <PUBCHEM_IUPAC_NAME>
16,17-dimethoxy-6-[3-[3,4,5-trihydroxy-6-[(3,4,5-trihydroxyoxan-2-yl)oxymethyl]oxan-2-yl]oxyprop-1-en-2-yl]-2,7,20-trioxapentacyclo[11.8.0.03,11.04,8.014,19]henicosa-3(11),4(8),9,14,16,18-hexaen-12-one

> <PUBCHEM_IUPAC_SYSTEMATIC_NAME>
16,17-dimethoxy-6-[3-[3,4,5-tris(oxidanyl)-6-[[3,4,5-tris(oxidanyl)oxan-2-yl]oxymethyl]oxan-2-yl]oxyprop-1-en-2-yl]-2,7,20-trioxapentacyclo[11.8.0.03,11.04,8.014,19]henicosa-3(11),4(8),9,14,16,18-hexaen-12-one

> <PUBCHEM_IUPAC_TRADITIONAL_NAME>
16,17-dimethoxy-6-[1-[[3,4,5-trihydroxy-6-[(3,4,5-trihydroxytetrahydropyran-2-yl)oxymethyl]tetrahydropyran-2-yl]oxymethyl]vinyl]-2,7,20-trioxapentacyclo[11.8.0.03,11.04,8.014,19]heneicosa-3(11),4(8),9,14,16,18-hexaen-12-one

> <PUBCHEM_IUPAC_INCHI>
InChI=1S/C34H40O16/c1-13(9-45-34-31(41)29(39)28(38)24(50-34)12-47-33-30(40)27(37)17(35)10-46-33)19-7-16-18(48-19)5-4-14-26(36)25-15-6-21(42-2)22(43-3)8-20(15)44-11-23(25)49-32(14)16/h4-6,8,17,19,23-25,27-31,33-35,37-41H,1,7,9-12H2,2-3H3

> <PUBCHEM_IUPAC_INCHIKEY>
CMQOKNQYLSMKJC-UHFFFAOYSA-N

> <PUBCHEM_XLOGP3>
-0.8

> <PUBCHEM_EXACT_MASS>
704.231635

> <PUBCHEM_MOLECULAR_FORMULA>
C34H40O16

> <PUBCHEM_MOLECULAR_WEIGHT>
704.7

> <PUBCHEM_OPENEYE_CAN_SMILES>
COC1=C(C=C2C(=C1)C3C(CO2)OC4=C(C3=O)C=CC5=C4CC(O5)C(=C)COC6C(C(C(C(O6)COC7C(C(C(CO7)O)O)O)O)O)O)OC

> <PUBCHEM_OPENEYE_ISO_SMILES>
COC1=C(C=C2C(=C1)C3C(CO2)OC4=C(C3=O)C=CC5=C4CC(O5)C(=C)COC6C(C(C(C(O6)COC7C(C(C(CO7)O)O)O)O)O)O)OC

> <PUBCHEM_CACTVS_TPSA>
222

> <PUBCHEM_MONOISOTOPIC_WEIGHT>
704.231635

> <PUBCHEM_TOTAL_CHARGE>
0

> <PUBCHEM_HEAVY_ATOM_COUNT>
50

> <PUBCHEM_ATOM_DEF_STEREO_COUNT>
0

> <PUBCHEM_ATOM_UDEF_STEREO_COUNT>
12

> <PUBCHEM_BOND_DEF_STEREO_COUNT>
0

> <PUBCHEM_BOND_UDEF_STEREO_COUNT>
0

> <PUBCHEM_ISOTOPIC_ATOM_COUNT>
0

> <PUBCHEM_COMPONENT_COUNT>
1

> <PUBCHEM_CACTVS_TAUTO_COUNT>
-1

> <PUBCHEM_COORDINATE_TYPE>
1
5
255

> <PUBCHEM_BONDANNOTATIONS>
34  11  3
36  12  3
39  14  3
17  24  3
22  30  3
23  33  3
25  28  8
25  35  8
26  37  3
28  29  8
29  41  8
21  3  3
31  40  8
31  44  8
35  43  8
32  4  3
40  45  8
41  43  8
44  46  8
45  48  8
46  48  8
18  6  3
19  7  3
20  9  3

$$$$
3084023
  -OEChem-04052116542D

 36 37  0     1  0  0  0  0  0999 V2000
    5.1350    0.1550    0.0000 O   0  0  0  0  0  0  0  0  0  0  0  0
    6.8671    0.1550    0.0000 O   0  0  0  0  0  0  0  0  0  0  0  0
    5.1350   -2.8450    0.0000 O   0  0  0  0  0  0  0  0  0  0  0  0
    3.4030   -1.8450    0.0000 O   0  0  0  0  0  0  0  0  0  0  0  0
    6.8671   -1.8450    0.0000 O   0  0  0  0  0  0  0  0  0  0  0  0
    2.5369   -0.3450    0.0000 O   0  0  0  0  0  0  0  0  0  0  0  0
    3.4030    1.1550    0.0000 O   0  0  0  0  0  0  0  0  0  0  0  0
    9.4651    1.6550    0.0000 O   0  0  0  0  0  0  0  0  0  0  0  0
    8.5991    0.1550    0.0000 O   0  0  0  0  0  0  0  0  0  0  0  0
    5.1350   -1.8450    0.0000 C   0  0  1  0  0  0  0  0  0  0  0  0
    4.2690   -1.3450    0.0000 C   0  0  1  0  0  0  0  0  0  0  0  0
    6.0010   -1.3450    0.0000 C   0  0  2  0  0  0  0  0  0  0  0  0
    4.2690   -0.3450    0.0000 C   0  0  1  0  0  0  0  0  0  0  0  0
    6.0010   -0.3450    0.0000 C   0  0  1  0  0  0  0  0  0  0  0  0
    3.4030    0.1550    0.0000 C   0  0  0  0  0  0  0  0  0  0  0  0
    6.8671    1.1550    0.0000 C   0  0  0  0  0  0  0  0  0  0  0  0
    7.7331    1.6550    0.0000 C   0  0  0  0  0  0  0  0  0  0  0  0
    6.0010    1.6550    0.0000 C   0  0  0  0  0  0  0  0  0  0  0  0
    7.7331    2.6550    0.0000 C   0  0  0  0  0  0  0  0  0  0  0  0
    6.0010    2.6550    0.0000 C   0  0  0  0  0  0  0  0  0  0  0  0
    6.8671    3.1550    0.0000 C   0  0  0  0  0  0  0  0  0  0  0  0
    8.5991    1.1550    0.0000 C   0  0  0  0  0  0  0  0  0  0  0  0
    4.5981   -2.1550    0.0000 H   0  0  0  0  0  0  0  0  0  0  0  0
    3.7320   -1.0350    0.0000 H   0  0  0  0  0  0  0  0  0  0  0  0
    6.0010   -1.9650    0.0000 H   0  0  0  0  0  0  0  0  0  0  0  0
    4.2690    0.2750    0.0000 H   0  0  0  0  0  0  0  0  0  0  0  0
    6.0010    0.2750    0.0000 H   0  0  0  0  0  0  0  0  0  0  0  0
    5.6720   -3.1550    0.0000 H   0  0  0  0  0  0  0  0  0  0  0  0
    7.4040   -1.5350    0.0000 H   0  0  0  0  0  0  0  0  0  0  0  0
    3.4030   -2.4650    0.0000 H   0  0  0  0  0  0  0  0  0  0  0  0
    5.4641    1.3450    0.0000 H   0  0  0  0  0  0  0  0  0  0  0  0
    2.0000   -0.0350    0.0000 H   0  0  0  0  0  0  0  0  0  0  0  0
    8.2700    2.9650    0.0000 H   0  0  0  0  0  0  0  0  0  0  0  0
    5.4641    2.9650    0.0000 H   0  0  0  0  0  0  0  0  0  0  0  0
    6.8671    3.7750    0.0000 H   0  0  0  0  0  0  0  0  0  0  0  0
   10.0021    1.3450    0.0000 H   0  0  0  0  0  0  0  0  0  0  0  0
  1 13  1  0  0  0  0
  1 14  1  0  0  0  0
 14  2  1  1  0  0  0
  2 16  1  0  0  0  0
 10  3  1  1  0  0  0
  3 28  1  0  0  0  0
 11  4  1  6  0  0  0
  4 30  1  0  0  0  0
 12  5  1  6  0  0  0
  5 29  1  0  0  0  0
  6 15  1  0  0  0  0
  6 32  1  0  0  0  0
  7 15  2  0  0  0  0
  8 22  1  0  0  0  0
  8 36  1  0  0  0  0
  9 22  2  0  0  0  0
 10 11  1  0  0  0  0
 10 12  1  0  0  0  0
 10 23  1  0  0  0  0
 11 13  1  0  0  0  0
 11 24  1  0  0  0  0
 12 14  1  0  0  0  0
 12 25  1  0  0  0  0
 13 15  1  1  0  0  0
 13 26  1  0  0  0  0
 14 27  1  0  0  0  0
 16 17  1  0  0  0  0
 16 18  2  0  0  0  0
 17 19  2  0  0  0  0
 17 22  1  0  0  0  0
 18 20  1  0  0  0  0
 18 31  1  0  0  0  0
 19 21  1  0  0  0  0
 19 33  1  0  0  0  0
 20 21  2  0  0  0  0
 20 34  1  0  0  0  0
 21 35  1  0  0  0  0
M  END
> <PUBCHEM_COMPOUND_CID>
3084023

> <PUBCHEM_COMPOUND_CANONICALIZED>
1

> <PUBCHEM_CACTVS_COMPLEXITY>
426

> <PUBCHEM_CACTVS_HBOND_ACCEPTOR>
9

> <PUBCHEM_CACTVS_HBOND_DONOR>
5

> <PUBCHEM_CACTVS_ROTATABLE_BOND>
4

> <PUBCHEM_CACTVS_SUBSKEYS>
AAADccBwPAAAAAAAAAAAAAAAAAAAAAAAAAA0QAAAAAAAAAABAAAAGgAACAAADBSwmAMwDoAABgCIAiDSCAICCAAkIAAIiAFGCMgdNzaENR6ieWCl4BEPuYfK7CzOAAAAAAAIAAAAAAAAABAAAAAAAAAAAA==

> <PUBCHEM_IUPAC_OPENEYE_NAME>
(2S,3S,4S,5R,6S)-6-(2-carboxyphenoxy)-3,4,5-trihydroxy-tetrahydropyran-2-carboxylic acid

> <PUBCHEM_IUPAC_CAS_NAME>
(2S,3S,4S,5R,6S)-6-(2-carboxyphenoxy)-3,4,5-trihydroxy-2-oxanecarboxylic acid

> <PUBCHEM_IUPAC_NAME_MARKUP>
(2<I>S</I>,3<I>S</I>,4<I>S</I>,5<I>R</I>,6<I>S</I>)-6-(2-carboxyphenoxy)-3,4,5-trihydroxyoxane-2-carboxylic acid

> <PUBCHEM_IUPAC_NAME>
(2S,3S,4S,5R,6S)-6-(2-carboxyphenoxy)-3,4,5-trihydroxyoxane-2-carboxylic acid

> <PUBCHEM_IUPAC_SYSTEMATIC_NAME>
(2S,3S,4S,5R,6S)-6-(2-carboxyphenoxy)-3,4,5-tris(oxidanyl)oxane-2-carboxylic acid

> <PUBCHEM_IUPAC_TRADITIONAL_NAME>
(2S,3S,4S,5R,6S)-6-(2-carboxyphenoxy)-3,4,5-trihydroxy-tetrahydropyran-2-carboxylic acid

> <PUBCHEM_IUPAC_INCHI>
InChI=1S/C13H14O9/c14-7-8(15)10(12(19)20)22-13(9(7)16)21-6-4-2-1-3-5(6)11(17)18/h1-4,7-10,13-16H,(H,17,18)(H,19,20)/t7-,8-,9+,10-,13+/m0/s1

> <PUBCHEM_IUPAC_INCHIKEY>
JSCWDKKMLIQCMR-CDHFTJPESA-N

> <PUBCHEM_XLOGP3_AA>
-0.5

> <PUBCHEM_EXACT_MASS>
314.063782

> <PUBCHEM_MOLECULAR_FORMULA>
C13H14O9

> <PUBCHEM_MOLECULAR_WEIGHT>
314.24

> <PUBCHEM_OPENEYE_CAN_SMILES>
C1=CC=C(C(=C1)C(=O)O)OC2C(C(C(C(O2)C(=O)O)O)O)O

> <PUBCHEM_OPENEYE_ISO_SMILES>
C1=CC=C(C(=C1)C(=O)O)O[C@H]2[C@@H]([C@H]([C@@H]([C@H](O2)C(=O)O)O)O)O

> <PUBCHEM_CACTVS_TPSA>
154

> <PUBCHEM_MONOISOTOPIC_WEIGHT>
314.063782

> <PUBCHEM_TOTAL_CHARGE>
0

> <PUBCHEM_HEAVY_ATOM_COUNT>
22

> <PUBCHEM_ATOM_DEF_STEREO_COUNT>
5

> <PUBCHEM_ATOM_UDEF_STEREO_COUNT>
0

> <PUBCHEM_BOND_DEF_STEREO_COUNT>
0

> <PUBCHEM_BOND_UDEF_STEREO_COUNT>
0

> <PUBCHEM_ISOTOPIC_ATOM_COUNT>
0

> <PUBCHEM_COMPONENT_COUNT>
1

> <PUBCHEM_CACTVS_TAUTO_COUNT>
-1

> <PUBCHEM_COORDINATE_TYPE>
1
5
255

> <PUBCHEM_BONDANNOTATIONS>
13  15  5
16  17  8
16  18  8
17  19  8
18  20  8
19  21  8
14  2  5
20  21  8
10  3  5
11  4  6
12  5  6

$$$$
3080852
  -OEChem-04052116542D

 46 48  0     1  0  0  0  0  0999 V2000
    5.1350    2.1550    0.0000 F   0  0  0  0  0  0  0  0  0  0  0  0
    6.8671    5.1550    0.0000 F   0  0  0  0  0  0  0  0  0  0  0  0
    5.1350   -1.8450    0.0000 O   0  0  0  0  0  0  0  0  0  0  0  0
    6.8671   -1.8450    0.0000 O   0  0  0  0  0  0  0  0  0  0  0  0
    5.1350   -4.8450    0.0000 O   0  0  0  0  0  0  0  0  0  0  0  0
    6.8671   -3.8450    0.0000 O   0  0  0  0  0  0  0  0  0  0  0  0
    3.4030   -3.8450    0.0000 O   0  0  0  0  0  0  0  0  0  0  0  0
    2.5369   -2.3450    0.0000 O   0  0  0  0  0  0  0  0  0  0  0  0
    3.4030   -0.8450    0.0000 O   0  0  0  0  0  0  0  0  0  0  0  0
    9.4651   -0.3450    0.0000 O   0  0  0  0  0  0  0  0  0  0  0  0
    8.5991   -1.8450    0.0000 O   0  0  0  0  0  0  0  0  0  0  0  0
    5.1350   -3.8450    0.0000 C   0  0  2  0  0  0  0  0  0  0  0  0
    6.0010   -3.3450    0.0000 C   0  0  2  0  0  0  0  0  0  0  0  0
    4.2690   -3.3450    0.0000 C   0  0  1  0  0  0  0  0  0  0  0  0
    4.2690   -2.3450    0.0000 C   0  0  1  0  0  0  0  0  0  0  0  0
    6.0010   -2.3450    0.0000 C   0  0  1  0  0  0  0  0  0  0  0  0
    3.4030   -1.8450    0.0000 C   0  0  0  0  0  0  0  0  0  0  0  0
    6.8671   -0.8450    0.0000 C   0  0  0  0  0  0  0  0  0  0  0  0
    7.7331   -0.3450    0.0000 C   0  0  0  0  0  0  0  0  0  0  0  0
    6.0010   -0.3450    0.0000 C   0  0  0  0  0  0  0  0  0  0  0  0
    6.8671    1.1550    0.0000 C   0  0  0  0  0  0  0  0  0  0  0  0
    7.7331    0.6550    0.0000 C   0  0  0  0  0  0  0  0  0  0  0  0
    6.0010    0.6550    0.0000 C   0  0  0  0  0  0  0  0  0  0  0  0
    6.8671    2.1550    0.0000 C   0  0  0  0  0  0  0  0  0  0  0  0
    8.5991   -0.8450    0.0000 C   0  0  0  0  0  0  0  0  0  0  0  0
    6.0010    2.6550    0.0000 C   0  0  0  0  0  0  0  0  0  0  0  0
    7.7331    2.6550    0.0000 C   0  0  0  0  0  0  0  0  0  0  0  0
    6.0010    3.6550    0.0000 C   0  0  0  0  0  0  0  0  0  0  0  0
    7.7331    3.6550    0.0000 C   0  0  0  0  0  0  0  0  0  0  0  0
    6.8671    4.1550    0.0000 C   0  0  0  0  0  0  0  0  0  0  0  0
    4.5981   -4.1550    0.0000 H   0  0  0  0  0  0  0  0  0  0  0  0
    6.0010   -3.9650    0.0000 H   0  0  0  0  0  0  0  0  0  0  0  0
    3.7320   -3.0350    0.0000 H   0  0  0  0  0  0  0  0  0  0  0  0
    6.0010   -1.7250    0.0000 H   0  0  0  0  0  0  0  0  0  0  0  0
    4.2690   -1.7250    0.0000 H   0  0  0  0  0  0  0  0  0  0  0  0
    5.6720   -5.1550    0.0000 H   0  0  0  0  0  0  0  0  0  0  0  0
    7.4040   -3.5350    0.0000 H   0  0  0  0  0  0  0  0  0  0  0  0
    3.4030   -4.4650    0.0000 H   0  0  0  0  0  0  0  0  0  0  0  0
    5.4641   -0.6550    0.0000 H   0  0  0  0  0  0  0  0  0  0  0  0
    8.2700    0.9650    0.0000 H   0  0  0  0  0  0  0  0  0  0  0  0
    2.0000   -2.0350    0.0000 H   0  0  0  0  0  0  0  0  0  0  0  0
    5.4641    0.9650    0.0000 H   0  0  0  0  0  0  0  0  0  0  0  0
    8.2700    2.3450    0.0000 H   0  0  0  0  0  0  0  0  0  0  0  0
    5.4641    3.9650    0.0000 H   0  0  0  0  0  0  0  0  0  0  0  0
    8.2700    3.9650    0.0000 H   0  0  0  0  0  0  0  0  0  0  0  0
    9.4651    0.2750    0.0000 H   0  0  0  0  0  0  0  0  0  0  0  0
  1 26  1  0  0  0  0
  2 30  1  0  0  0  0
  3 15  1  0  0  0  0
  3 16  1  0  0  0  0
 16  4  1  1  0  0  0
  4 18  1  0  0  0  0
 12  5  1  1  0  0  0
  5 36  1  0  0  0  0
 13  6  1  6  0  0  0
  6 37  1  0  0  0  0
 14  7  1  6  0  0  0
  7 38  1  0  0  0  0
  8 17  1  0  0  0  0
  8 41  1  0  0  0  0
  9 17  2  0  0  0  0
 10 25  1  0  0  0  0
 10 46  1  0  0  0  0
 11 25  2  0  0  0  0
 12 13  1  0  0  0  0
 12 14  1  0  0  0  0
 12 31  1  0  0  0  0
 13 16  1  0  0  0  0
 13 32  1  0  0  0  0
 14 15  1  0  0  0  0
 14 33  1  0  0  0  0
 15 17  1  1  0  0  0
 15 35  1  0  0  0  0
 16 34  1  0  0  0  0
 18 19  2  0  0  0  0
 18 20  1  0  0  0  0
 19 22  1  0  0  0  0
 19 25  1  0  0  0  0
 20 23  2  0  0  0  0
 20 39  1  0  0  0  0
 21 22  2  0  0  0  0
 21 23  1  0  0  0  0
 21 24  1  0  0  0  0
 22 40  1  0  0  0  0
 23 42  1  0  0  0  0
 24 26  2  0  0  0  0
 24 27  1  0  0  0  0
 26 28  1  0  0  0  0
 27 29  2  0  0  0  0
 27 43  1  0  0  0  0
 28 30  2  0  0  0  0
 28 44  1  0  0  0  0
 29 30  1  0  0  0  0
 29 45  1  0  0  0  0
M  END
> <PUBCHEM_COMPOUND_CID>
3080852

> <PUBCHEM_COMPOUND_CANONICALIZED>
1

> <PUBCHEM_CACTVS_COMPLEXITY>
635

> <PUBCHEM_CACTVS_HBOND_ACCEPTOR>
11

> <PUBCHEM_CACTVS_HBOND_DONOR>
5

> <PUBCHEM_CACTVS_ROTATABLE_BOND>
5

> <PUBCHEM_CACTVS_SUBSKEYS>
AAADceB4PYAAAAAAAAAAAAAAAAAAAAAAAAA0YIAAAAAAAAABQAAAGwAACAAADBSwmAswDoAABgCIAiDSCAICCAAkIAAIiAFGCMgdNzaENR6ieWCl4BEPuYfK7PzOoAACAAAIAABAAAQAABAAAAAAAAAAAA==

> <PUBCHEM_IUPAC_OPENEYE_NAME>
(2S,3S,4S,5R,6S)-6-[2-carboxy-4-(2,4-difluorophenyl)phenoxy]-3,4,5-trihydroxy-tetrahydropyran-2-carboxylic acid

> <PUBCHEM_IUPAC_CAS_NAME>
(2S,3S,4S,5R,6S)-6-[2-carboxy-4-(2,4-difluorophenyl)phenoxy]-3,4,5-trihydroxy-2-oxanecarboxylic acid

> <PUBCHEM_IUPAC_NAME_MARKUP>
(2<I>S</I>,3<I>S</I>,4<I>S</I>,5<I>R</I>,6<I>S</I>)-6-[2-carboxy-4-(2,4-difluorophenyl)phenoxy]-3,4,5-trihydroxyoxane-2-carboxylic acid

> <PUBCHEM_IUPAC_NAME>
(2S,3S,4S,5R,6S)-6-[2-carboxy-4-(2,4-difluorophenyl)phenoxy]-3,4,5-trihydroxyoxane-2-carboxylic acid

> <PUBCHEM_IUPAC_SYSTEMATIC_NAME>
(2S,3S,4S,5R,6S)-6-[4-[2,4-bis(fluoranyl)phenyl]-2-carboxy-phenoxy]-3,4,5-tris(oxidanyl)oxane-2-carboxylic acid

> <PUBCHEM_IUPAC_TRADITIONAL_NAME>
(2S,3S,4S,5R,6S)-6-[2-carboxy-4-(2,4-difluorophenyl)phenoxy]-3,4,5-trihydroxy-tetrahydropyran-2-carboxylic acid

> <PUBCHEM_IUPAC_INCHI>
InChI=1S/C19H16F2O9/c20-8-2-3-9(11(21)6-8)7-1-4-12(10(5-7)17(25)26)29-19-15(24)13(22)14(23)16(30-19)18(27)28/h1-6,13-16,19,22-24H,(H,25,26)(H,27,28)/t13-,14-,15+,16-,19+/m0/s1

> <PUBCHEM_IUPAC_INCHIKEY>
RBZXVQOCMCPTHC-KSPMYQCISA-N

> <PUBCHEM_XLOGP3_AA>
1.4

> <PUBCHEM_EXACT_MASS>
426.076238

> <PUBCHEM_MOLECULAR_FORMULA>
C19H16F2O9

> <PUBCHEM_MOLECULAR_WEIGHT>
426.3

> <PUBCHEM_OPENEYE_CAN_SMILES>
C1=CC(=C(C=C1C2=C(C=C(C=C2)F)F)C(=O)O)OC3C(C(C(C(O3)C(=O)O)O)O)O

> <PUBCHEM_OPENEYE_ISO_SMILES>
C1=CC(=C(C=C1C2=C(C=C(C=C2)F)F)C(=O)O)O[C@H]3[C@@H]([C@H]([C@@H]([C@H](O3)C(=O)O)O)O)O

> <PUBCHEM_CACTVS_TPSA>
154

> <PUBCHEM_MONOISOTOPIC_WEIGHT>
426.076238

> <PUBCHEM_TOTAL_CHARGE>
0

> <PUBCHEM_HEAVY_ATOM_COUNT>
30

> <PUBCHEM_ATOM_DEF_STEREO_COUNT>
5

> <PUBCHEM_ATOM_UDEF_STEREO_COUNT>
0

> <PUBCHEM_BOND_DEF_STEREO_COUNT>
0

> <PUBCHEM_BOND_UDEF_STEREO_COUNT>
0

> <PUBCHEM_ISOTOPIC_ATOM_COUNT>
0

> <PUBCHEM_COMPONENT_COUNT>
1

> <PUBCHEM_CACTVS_TAUTO_COUNT>
-1

> <PUBCHEM_COORDINATE_TYPE>
1
5
255

> <PUBCHEM_BONDANNOTATIONS>
15  17  5
18  19  8
18  20  8
19  22  8
20  23  8
21  22  8
21  23  8
24  26  8
24  27  8
26  28  8
27  29  8
28  30  8
29  30  8
16  4  5
12  5  5
13  6  6
14  7  6

$$$$
503731
  -OEChem-04052116542D

 45 47  0     0  0  0  0  0  0999 V2000
    8.1424   -0.9202    0.0000 O   0  0  0  0  0  0  0  0  0  0  0  0
    6.3301    1.8845    0.0000 O   0  0  0  0  0  0  0  0  0  0  0  0
    4.5981   -1.1155    0.0000 O   0  0  0  0  0  0  0  0  0  0  0  0
    9.7260   -1.8476    0.0000 O   0  0  0  0  0  0  0  0  0  0  0  0
   12.7260   -0.1155    0.0000 O   0  0  0  0  0  0  0  0  0  0  0  0
    7.1962    0.3845    0.0000 C   0  0  0  0  0  0  0  0  0  0  0  0
    5.4641    0.3845    0.0000 C   0  0  0  0  0  0  0  0  0  0  0  0
    6.3301    0.8845    0.0000 C   0  0  0  0  0  0  0  0  0  0  0  0
    7.1962   -0.6155    0.0000 C   0  0  0  0  0  0  0  0  0  0  0  0
    4.5981    0.8845    0.0000 C   0  0  0  0  0  0  0  0  0  0  0  0
    8.1424    0.6892    0.0000 C   0  0  0  0  0  0  0  0  0  0  0  0
    8.7260   -0.1155    0.0000 C   0  0  0  0  0  0  0  0  0  0  0  0
    5.4641   -0.6155    0.0000 C   0  0  0  0  0  0  0  0  0  0  0  0
    6.3301   -1.1155    0.0000 C   0  0  0  0  0  0  0  0  0  0  0  0
    9.7260   -0.1155    0.0000 C   0  0  0  0  0  0  0  0  0  0  0  0
    3.7320    0.3845    0.0000 C   0  0  0  0  0  0  0  0  0  0  0  0
   10.2260   -0.9815    0.0000 C   0  0  0  0  0  0  0  0  0  0  0  0
    2.8660    0.8845    0.0000 C   0  0  0  0  0  0  0  0  0  0  0  0
   10.2260    0.7505    0.0000 C   0  0  0  0  0  0  0  0  0  0  0  0
   11.2260   -0.9815    0.0000 C   0  0  0  0  0  0  0  0  0  0  0  0
   11.2260    0.7505    0.0000 C   0  0  0  0  0  0  0  0  0  0  0  0
    5.4641    2.3845    0.0000 C   0  0  0  0  0  0  0  0  0  0  0  0
   11.7260   -0.1155    0.0000 C   0  0  0  0  0  0  0  0  0  0  0  0
    2.0000    0.3845    0.0000 C   0  0  0  0  0  0  0  0  0  0  0  0
    2.8660    1.8845    0.0000 C   0  0  0  0  0  0  0  0  0  0  0  0
    4.9966    1.3594    0.0000 H   0  0  0  0  0  0  0  0  0  0  0  0
    4.1996    1.3594    0.0000 H   0  0  0  0  0  0  0  0  0  0  0  0
    8.3350    1.2786    0.0000 H   0  0  0  0  0  0  0  0  0  0  0  0
    6.3301   -1.7355    0.0000 H   0  0  0  0  0  0  0  0  0  0  0  0
    3.7320   -0.2355    0.0000 H   0  0  0  0  0  0  0  0  0  0  0  0
    9.9160    1.2874    0.0000 H   0  0  0  0  0  0  0  0  0  0  0  0
    4.5981   -1.7355    0.0000 H   0  0  0  0  0  0  0  0  0  0  0  0
   11.5360   -1.5185    0.0000 H   0  0  0  0  0  0  0  0  0  0  0  0
   11.5360    1.2874    0.0000 H   0  0  0  0  0  0  0  0  0  0  0  0
    5.7741    2.9214    0.0000 H   0  0  0  0  0  0  0  0  0  0  0  0
    4.9272    2.6945    0.0000 H   0  0  0  0  0  0  0  0  0  0  0  0
    5.1541    1.8476    0.0000 H   0  0  0  0  0  0  0  0  0  0  0  0
    1.6900    0.9214    0.0000 H   0  0  0  0  0  0  0  0  0  0  0  0
    1.4631    0.0745    0.0000 H   0  0  0  0  0  0  0  0  0  0  0  0
    2.3100   -0.1524    0.0000 H   0  0  0  0  0  0  0  0  0  0  0  0
    3.4860    1.8845    0.0000 H   0  0  0  0  0  0  0  0  0  0  0  0
    2.8660    2.5045    0.0000 H   0  0  0  0  0  0  0  0  0  0  0  0
    2.2460    1.8845    0.0000 H   0  0  0  0  0  0  0  0  0  0  0  0
   10.0360   -2.3845    0.0000 H   0  0  0  0  0  0  0  0  0  0  0  0
   13.0360    0.4214    0.0000 H   0  0  0  0  0  0  0  0  0  0  0  0
  1  9  1  0  0  0  0
  1 12  1  0  0  0  0
  2  8  1  0  0  0  0
  2 22  1  0  0  0  0
  3 13  1  0  0  0  0
  3 32  1  0  0  0  0
  4 17  1  0  0  0  0
  4 44  1  0  0  0  0
  5 23  1  0  0  0  0
  5 45  1  0  0  0  0
  6  8  1  0  0  0  0
  6  9  2  0  0  0  0
  6 11  1  0  0  0  0
  7  8  2  0  0  0  0
  7 10  1  0  0  0  0
  7 13  1  0  0  0  0
  9 14  1  0  0  0  0
 10 16  1  0  0  0  0
 10 26  1  0  0  0  0
 10 27  1  0  0  0  0
 11 12  2  0  0  0  0
 11 28  1  0  0  0  0
 12 15  1  0  0  0  0
 13 14  2  0  0  0  0
 14 29  1  0  0  0  0
 15 17  2  0  0  0  0
 15 19  1  0  0  0  0
 16 18  2  0  0  0  0
 16 30  1  0  0  0  0
 17 20  1  0  0  0  0
 18 24  1  0  0  0  0
 18 25  1  0  0  0  0
 19 21  2  0  0  0  0
 19 31  1  0  0  0  0
 20 23  2  0  0  0  0
 20 33  1  0  0  0  0
 21 23  1  0  0  0  0
 21 34  1  0  0  0  0
 22 35  1  0  0  0  0
 22 36  1  0  0  0  0
 22 37  1  0  0  0  0
 24 38  1  0  0  0  0
 24 39  1  0  0  0  0
 24 40  1  0  0  0  0
 25 41  1  0  0  0  0
 25 42  1  0  0  0  0
 25 43  1  0  0  0  0
M  END
> <PUBCHEM_COMPOUND_CID>
503731

> <PUBCHEM_COMPOUND_CANONICALIZED>
1

> <PUBCHEM_CACTVS_COMPLEXITY>
475

> <PUBCHEM_CACTVS_HBOND_ACCEPTOR>
5

> <PUBCHEM_CACTVS_HBOND_DONOR>
3

> <PUBCHEM_CACTVS_ROTATABLE_BOND>
4

> <PUBCHEM_CACTVS_SUBSKEYS>
AAADceB4OAAAAAAAAAAAAAAAAAAAASAAAAAwYAAAAAAAAEgB9AAAGgAACAAADASAmAIyBsAABkCIAqBSAAACCAAkIAAIiAEGCMgMJzaGNRqCeWCl4BUIuYfK7PzOIAACCAAIAABAAAQQABAAAAAAAAAAAA==

> <PUBCHEM_IUPAC_OPENEYE_NAME>
4-[6-hydroxy-4-methoxy-5-(3-methylbut-2-enyl)benzofuran-2-yl]benzene-1,3-diol

> <PUBCHEM_IUPAC_CAS_NAME>
4-[6-hydroxy-4-methoxy-5-(3-methylbut-2-enyl)-2-benzofuranyl]benzene-1,3-diol

> <PUBCHEM_IUPAC_NAME_MARKUP>
4-[6-hydroxy-4-methoxy-5-(3-methylbut-2-enyl)-1-benzofuran-2-yl]benzene-1,3-diol

> <PUBCHEM_IUPAC_NAME>
4-[6-hydroxy-4-methoxy-5-(3-methylbut-2-enyl)-1-benzofuran-2-yl]benzene-1,3-diol

> <PUBCHEM_IUPAC_SYSTEMATIC_NAME>
4-[4-methoxy-5-(3-methylbut-2-enyl)-6-oxidanyl-1-benzofuran-2-yl]benzene-1,3-diol

> <PUBCHEM_IUPAC_TRADITIONAL_NAME>
4-[6-hydroxy-4-methoxy-5-(3-methylbut-2-enyl)benzofuran-2-yl]resorcinol

> <PUBCHEM_IUPAC_INCHI>
InChI=1S/C20H20O5/c1-11(2)4-6-14-17(23)10-19-15(20(14)24-3)9-18(25-19)13-7-5-12(21)8-16(13)22/h4-5,7-10,21-23H,6H2,1-3H3

> <PUBCHEM_IUPAC_INCHIKEY>
CNPMAFLUEHEXRE-UHFFFAOYSA-N

> <PUBCHEM_XLOGP3_AA>
4.8

> <PUBCHEM_EXACT_MASS>
340.131074

> <PUBCHEM_MOLECULAR_FORMULA>
C20H20O5

> <PUBCHEM_MOLECULAR_WEIGHT>
340.4

> <PUBCHEM_OPENEYE_CAN_SMILES>
CC(=CCC1=C(C2=C(C=C1O)OC(=C2)C3=C(C=C(C=C3)O)O)OC)C

> <PUBCHEM_OPENEYE_ISO_SMILES>
CC(=CCC1=C(C2=C(C=C1O)OC(=C2)C3=C(C=C(C=C3)O)O)OC)C

> <PUBCHEM_CACTVS_TPSA>
83.1

> <PUBCHEM_MONOISOTOPIC_WEIGHT>
340.131074

> <PUBCHEM_TOTAL_CHARGE>
0

> <PUBCHEM_HEAVY_ATOM_COUNT>
25

> <PUBCHEM_ATOM_DEF_STEREO_COUNT>
0

> <PUBCHEM_ATOM_UDEF_STEREO_COUNT>
0

> <PUBCHEM_BOND_DEF_STEREO_COUNT>
0

> <PUBCHEM_BOND_UDEF_STEREO_COUNT>
0

> <PUBCHEM_ISOTOPIC_ATOM_COUNT>
0

> <PUBCHEM_COMPONENT_COUNT>
1

> <PUBCHEM_CACTVS_TAUTO_COUNT>
-1

> <PUBCHEM_COORDINATE_TYPE>
1
5
255

> <PUBCHEM_BONDANNOTATIONS>
1  12  8
1  9  8
11  12  8
13  14  8
15  17  8
15  19  8
17  20  8
19  21  8
20  23  8
21  23  8
6  11  8
6  8  8
6  9  8
7  13  8
7  8  8
9  14  8

$$$$
452707
  -OEChem-04052116542D

 69 72  0     1  0  0  0  0  0999 V2000
    6.8671    1.0000    0.0000 O   0  0  0  0  0  0  0  0  0  0  0  0
    6.8671   -2.0000    0.0000 O   0  0  0  0  0  0  0  0  0  0  0  0
    5.1350   -1.0000    0.0000 O   0  0  0  0  0  0  0  0  0  0  0  0
    8.5991   -1.0000    0.0000 O   0  0  0  0  0  0  0  0  0  0  0  0
    8.5991    1.0000    0.0000 O   0  0  0  0  0  0  0  0  0  0  0  0
    5.1350    2.0000    0.0000 O   0  0  0  0  0  0  0  0  0  0  0  0
    5.1350   -2.0000    0.0000 O   0  0  0  0  0  0  0  0  0  0  0  0
    7.7331    2.5000    0.0000 O   0  0  0  0  0  0  0  0  0  0  0  0
    3.4030    2.0000    0.0000 O   0  0  0  0  0  0  0  0  0  0  0  0
    7.7331   -5.5000    0.0000 O   0  0  0  0  0  0  0  0  0  0  0  0
    4.2690   -5.5000    0.0000 O   0  0  0  0  0  0  0  0  0  0  0  0
    6.0010   -6.5000    0.0000 O   0  0  0  0  0  0  0  0  0  0  0  0
   10.3312    5.0000    0.0000 O   0  0  0  0  0  0  0  0  0  0  0  0
   12.0632    2.0000    0.0000 O   0  0  0  0  0  0  0  0  0  0  0  0
   12.0632    4.0000    0.0000 O   0  0  0  0  0  0  0  0  0  0  0  0
    2.5369    5.5000    0.0000 O   0  0  0  0  0  0  0  0  0  0  0  0
    6.0010    5.5000    0.0000 O   0  0  0  0  0  0  0  0  0  0  0  0
    4.2690    6.5000    0.0000 O   0  0  0  0  0  0  0  0  0  0  0  0
    6.8671   -1.0000    0.0000 C   0  0  1  0  0  0  0  0  0  0  0  0
    6.0010   -0.5000    0.0000 C   0  0  1  0  0  0  0  0  0  0  0  0
    6.0010    0.5000    0.0000 C   0  0  1  0  0  0  0  0  0  0  0  0
    7.7331   -0.5000    0.0000 C   0  0  2  0  0  0  0  0  0  0  0  0
    7.7331    0.5000    0.0000 C   0  0  1  0  0  0  0  0  0  0  0  0
    5.1350    1.0000    0.0000 C   0  0  0  0  0  0  0  0  0  0  0  0
    6.0010   -2.5000    0.0000 C   0  0  0  0  0  0  0  0  0  0  0  0
    8.5991    2.0000    0.0000 C   0  0  0  0  0  0  0  0  0  0  0  0
    6.0010   -3.5000    0.0000 C   0  0  0  0  0  0  0  0  0  0  0  0
    4.2690    2.5000    0.0000 C   0  0  0  0  0  0  0  0  0  0  0  0
    9.4651    2.5000    0.0000 C   0  0  0  0  0  0  0  0  0  0  0  0
    4.2690    3.5000    0.0000 C   0  0  0  0  0  0  0  0  0  0  0  0
    5.1350   -4.0000    0.0000 C   0  0  0  0  0  0  0  0  0  0  0  0
    6.8671   -4.0000    0.0000 C   0  0  0  0  0  0  0  0  0  0  0  0
   10.3312    2.0000    0.0000 C   0  0  0  0  0  0  0  0  0  0  0  0
    9.4651    3.5000    0.0000 C   0  0  0  0  0  0  0  0  0  0  0  0
    6.8671   -5.0000    0.0000 C   0  0  0  0  0  0  0  0  0  0  0  0
    5.1350   -5.0000    0.0000 C   0  0  0  0  0  0  0  0  0  0  0  0
    5.1350    4.0000    0.0000 C   0  0  0  0  0  0  0  0  0  0  0  0
    3.4030    4.0000    0.0000 C   0  0  0  0  0  0  0  0  0  0  0  0
    6.0010   -5.5000    0.0000 C   0  0  0  0  0  0  0  0  0  0  0  0
   10.3312    4.0000    0.0000 C   0  0  0  0  0  0  0  0  0  0  0  0
   11.1972    2.5000    0.0000 C   0  0  0  0  0  0  0  0  0  0  0  0
   11.1972    3.5000    0.0000 C   0  0  0  0  0  0  0  0  0  0  0  0
    3.4030    5.0000    0.0000 C   0  0  0  0  0  0  0  0  0  0  0  0
    5.1350    5.0000    0.0000 C   0  0  0  0  0  0  0  0  0  0  0  0
    4.2690    5.5000    0.0000 C   0  0  0  0  0  0  0  0  0  0  0  0
    6.3301   -1.3100    0.0000 H   0  0  0  0  0  0  0  0  0  0  0  0
    6.0010   -1.1200    0.0000 H   0  0  0  0  0  0  0  0  0  0  0  0
    6.0010    1.1200    0.0000 H   0  0  0  0  0  0  0  0  0  0  0  0
    7.7331   -1.1200    0.0000 H   0  0  0  0  0  0  0  0  0  0  0  0
    7.7331    1.1200    0.0000 H   0  0  0  0  0  0  0  0  0  0  0  0
    4.5244    1.1077    0.0000 H   0  0  0  0  0  0  0  0  0  0  0  0
    4.9230    0.4174    0.0000 H   0  0  0  0  0  0  0  0  0  0  0  0
    4.5981   -0.6900    0.0000 H   0  0  0  0  0  0  0  0  0  0  0  0
    9.1360   -0.6900    0.0000 H   0  0  0  0  0  0  0  0  0  0  0  0
    4.5981   -3.6900    0.0000 H   0  0  0  0  0  0  0  0  0  0  0  0
    7.4040   -3.6900    0.0000 H   0  0  0  0  0  0  0  0  0  0  0  0
   10.3312    1.3800    0.0000 H   0  0  0  0  0  0  0  0  0  0  0  0
    8.9282    3.8100    0.0000 H   0  0  0  0  0  0  0  0  0  0  0  0
    5.6720    3.6900    0.0000 H   0  0  0  0  0  0  0  0  0  0  0  0
    2.8660    3.6900    0.0000 H   0  0  0  0  0  0  0  0  0  0  0  0
    8.2700   -5.1900    0.0000 H   0  0  0  0  0  0  0  0  0  0  0  0
    3.7320   -5.1900    0.0000 H   0  0  0  0  0  0  0  0  0  0  0  0
    5.4641   -6.8100    0.0000 H   0  0  0  0  0  0  0  0  0  0  0  0
    9.7942    5.3100    0.0000 H   0  0  0  0  0  0  0  0  0  0  0  0
   12.0632    1.3800    0.0000 H   0  0  0  0  0  0  0  0  0  0  0  0
   12.6002    3.6900    0.0000 H   0  0  0  0  0  0  0  0  0  0  0  0
    2.0000    5.1900    0.0000 H   0  0  0  0  0  0  0  0  0  0  0  0
    6.0010    6.1200    0.0000 H   0  0  0  0  0  0  0  0  0  0  0  0
    3.7320    6.8100    0.0000 H   0  0  0  0  0  0  0  0  0  0  0  0
  1 21  1  0  0  0  0
  1 23  1  0  0  0  0
 19  2  1  1  0  0  0
  2 25  1  0  0  0  0
 20  3  1  6  0  0  0
  3 53  1  0  0  0  0
 22  4  1  6  0  0  0
  4 54  1  0  0  0  0
 23  5  1  1  0  0  0
  5 26  1  0  0  0  0
  6 24  1  0  0  0  0
  6 28  1  0  0  0  0
  7 25  2  0  0  0  0
  8 26  2  0  0  0  0
  9 28  2  0  0  0  0
 10 35  1  0  0  0  0
 10 61  1  0  0  0  0
 11 36  1  0  0  0  0
 11 62  1  0  0  0  0
 12 39  1  0  0  0  0
 12 63  1  0  0  0  0
 13 40  1  0  0  0  0
 13 64  1  0  0  0  0
 14 41  1  0  0  0  0
 14 65  1  0  0  0  0
 15 42  1  0  0  0  0
 15 66  1  0  0  0  0
 16 43  1  0  0  0  0
 16 67  1  0  0  0  0
 17 44  1  0  0  0  0
 17 68  1  0  0  0  0
 18 45  1  0  0  0  0
 18 69  1  0  0  0  0
 19 20  1  0  0  0  0
 19 22  1  0  0  0  0
 19 46  1  0  0  0  0
 20 21  1  0  0  0  0
 20 47  1  0  0  0  0
 21 24  1  1  0  0  0
 21 48  1  0  0  0  0
 22 23  1  0  0  0  0
 22 49  1  0  0  0  0
 23 50  1  0  0  0  0
 24 51  1  0  0  0  0
 24 52  1  0  0  0  0
 25 27  1  0  0  0  0
 26 29  1  0  0  0  0
 27 31  2  0  0  0  0
 27 32  1  0  0  0  0
 28 30  1  0  0  0  0
 29 33  2  0  0  0  0
 29 34  1  0  0  0  0
 30 37  2  0  0  0  0
 30 38  1  0  0  0  0
 31 36  1  0  0  0  0
 31 55  1  0  0  0  0
 32 35  2  0  0  0  0
 32 56  1  0  0  0  0
 33 41  1  0  0  0  0
 33 57  1  0  0  0  0
 34 40  2  0  0  0  0
 34 58  1  0  0  0  0
 35 39  1  0  0  0  0
 36 39  2  0  0  0  0
 37 44  1  0  0  0  0
 37 59  1  0  0  0  0
 38 43  2  0  0  0  0
 38 60  1  0  0  0  0
 40 42  1  0  0  0  0
 41 42  2  0  0  0  0
 43 45  1  0  0  0  0
 44 45  2  0  0  0  0
M  END
> <PUBCHEM_COMPOUND_CID>
452707

> <PUBCHEM_COMPOUND_CANONICALIZED>
1

> <PUBCHEM_CACTVS_COMPLEXITY>
1010

> <PUBCHEM_CACTVS_HBOND_ACCEPTOR>
18

> <PUBCHEM_CACTVS_HBOND_DONOR>
11

> <PUBCHEM_CACTVS_ROTATABLE_BOND>
10

> <PUBCHEM_CACTVS_SUBSKEYS>
AAADceB4PgAAAAAAAAAAAAAAAAAAAAAAAAA0YMEAAAAAAAABUAAAGgAACAAADBSwmAMwDoAABgCIAiDSCAACAAAkIAAAiAEGiMgZNzKCNRqicQElwBUPuYfK7DzOIAABCAAAQABAAAIQAACAAAAAAAAAAA==

> <PUBCHEM_IUPAC_OPENEYE_NAME>
[(2R,3R,4S,5R,6S)-3,5-dihydroxy-4,6-bis[(3,4,5-trihydroxybenzoyl)oxy]tetrahydropyran-2-yl]methyl 3,4,5-trihydroxybenzoate

> <PUBCHEM_IUPAC_CAS_NAME>
3,4,5-trihydroxybenzoic acid [(2R,3R,4S,5R,6S)-3,5-dihydroxy-4,6-bis[oxo-(3,4,5-trihydroxyphenyl)methoxy]-2-oxanyl]methyl ester

> <PUBCHEM_IUPAC_NAME_MARKUP>
[(2<I>R</I>,3<I>R</I>,4<I>S</I>,5<I>R</I>,6<I>S</I>)-3,5-dihydroxy-4,6-bis[(3,4,5-trihydroxybenzoyl)oxy]oxan-2-yl]methyl 3,4,5-trihydroxybenzoate

> <PUBCHEM_IUPAC_NAME>
[(2R,3R,4S,5R,6S)-3,5-dihydroxy-4,6-bis[(3,4,5-trihydroxybenzoyl)oxy]oxan-2-yl]methyl 3,4,5-trihydroxybenzoate

> <PUBCHEM_IUPAC_SYSTEMATIC_NAME>
[(2R,3R,4S,5R,6S)-3,5-bis(oxidanyl)-4,6-bis[[3,4,5-tris(oxidanyl)phenyl]carbonyloxy]oxan-2-yl]methyl 3,4,5-tris(oxidanyl)benzoate

> <PUBCHEM_IUPAC_TRADITIONAL_NAME>
3,4,5-trihydroxybenzoic acid [(2R,3R,4S,5R,6S)-4,6-digalloyloxy-3,5-dihydroxy-tetrahydropyran-2-yl]methyl ester

> <PUBCHEM_IUPAC_INCHI>
InChI=1S/C27H24O18/c28-11-1-8(2-12(29)18(11)34)24(39)42-7-17-21(37)23(44-25(40)9-3-13(30)19(35)14(31)4-9)22(38)27(43-17)45-26(41)10-5-15(32)20(36)16(33)6-10/h1-6,17,21-23,27-38H,7H2/t17-,21-,22-,23+,27+/m1/s1

> <PUBCHEM_IUPAC_INCHIKEY>
RNKMOGIPOMVCHO-SJMVAQJGSA-N

> <PUBCHEM_XLOGP3_AA>
0.4

> <PUBCHEM_EXACT_MASS>
636.096264

> <PUBCHEM_MOLECULAR_FORMULA>
C27H24O18

> <PUBCHEM_MOLECULAR_WEIGHT>
636.5

> <PUBCHEM_OPENEYE_CAN_SMILES>
C1=C(C=C(C(=C1O)O)O)C(=O)OCC2C(C(C(C(O2)OC(=O)C3=CC(=C(C(=C3)O)O)O)O)OC(=O)C4=CC(=C(C(=C4)O)O)O)O

> <PUBCHEM_OPENEYE_ISO_SMILES>
C1=C(C=C(C(=C1O)O)O)C(=O)OC[C@@H]2[C@H]([C@@H]([C@H]([C@@H](O2)OC(=O)C3=CC(=C(C(=C3)O)O)O)O)OC(=O)C4=CC(=C(C(=C4)O)O)O)O

> <PUBCHEM_CACTVS_TPSA>
311

> <PUBCHEM_MONOISOTOPIC_WEIGHT>
636.096264

> <PUBCHEM_TOTAL_CHARGE>
0

> <PUBCHEM_HEAVY_ATOM_COUNT>
45

> <PUBCHEM_ATOM_DEF_STEREO_COUNT>
5

> <PUBCHEM_ATOM_UDEF_STEREO_COUNT>
0

> <PUBCHEM_BOND_DEF_STEREO_COUNT>
0

> <PUBCHEM_BOND_UDEF_STEREO_COUNT>
0

> <PUBCHEM_ISOTOPIC_ATOM_COUNT>
0

> <PUBCHEM_COMPONENT_COUNT>
1

> <PUBCHEM_CACTVS_TAUTO_COUNT>
-1

> <PUBCHEM_COORDINATE_TYPE>
1
5
255

> <PUBCHEM_BONDANNOTATIONS>
19  2  5
21  24  5
27  31  8
27  32  8
29  33  8
29  34  8
20  3  6
30  37  8
30  38  8
31  36  8
32  35  8
33  41  8
34  40  8
35  39  8
36  39  8
37  44  8
38  43  8
22  4  6
40  42  8
41  42  8
43  45  8
44  45  8
23  5  5

$$$$
439761
  -OEChem-04052116542D

 47 50  0     1  0  0  0  0  0999 V2000
    3.4022   -1.3424    0.0000 S   0  0  0  0  0  0  0  0  0  0  0  0
    4.2663   -1.8458    0.0000 O   0  0  0  0  0  0  0  0  0  0  0  0
    2.5381   -0.8391    0.0000 O   0  0  0  0  0  0  0  0  0  0  0  0
    2.8989   -2.2065    0.0000 O   0  0  0  0  0  0  0  0  0  0  0  0
    3.9056   -0.4784    0.0000 O   0  0  0  0  0  0  0  0  0  0  0  0
    9.6594    1.2065    0.0000 C   0  0  3  0  0  0  0  0  0  0  0  0
    9.6594    0.2065    0.0000 C   0  0  3  0  0  0  0  0  0  0  0  0
    8.7934   -0.2935    0.0000 C   0  0  3  0  0  0  0  0  0  0  0  0
    7.9273    0.2065    0.0000 C   0  0  3  0  0  0  0  0  0  0  0  0
    8.7934    1.7065    0.0000 C   0  0  0  0  0  0  0  0  0  0  0  0
   10.6056    1.5113    0.0000 C   0  0  0  0  0  0  0  0  0  0  0  0
   10.6056   -0.0982    0.0000 C   0  0  0  0  0  0  0  0  0  0  0  0
    7.9273    1.2065    0.0000 C   0  0  0  0  0  0  0  0  0  0  0  0
   11.1892    0.7065    0.0000 C   0  0  0  0  0  0  0  0  0  0  0  0
    8.8094   -1.3350    0.0000 C   0  0  0  0  0  0  0  0  0  0  0  0
    9.6594    2.2065    0.0000 C   0  0  0  0  0  0  0  0  0  0  0  0
    7.0173   -0.3003    0.0000 C   0  0  0  0  0  0  0  0  0  0  0  0
    7.9114   -1.8627    0.0000 C   0  0  0  0  0  0  0  0  0  0  0  0
    7.0093   -1.3419    0.0000 C   0  0  0  0  0  0  0  0  0  0  0  0
    6.0905    0.2638    0.0000 C   0  0  0  0  0  0  0  0  0  0  0  0
    6.0739   -1.8916    0.0000 C   0  0  0  0  0  0  0  0  0  0  0  0
    5.1426   -0.2642    0.0000 C   0  0  0  0  0  0  0  0  0  0  0  0
    5.1343   -1.3491    0.0000 C   0  0  0  0  0  0  0  0  0  0  0  0
    9.7250   -0.4100    0.0000 H   0  0  0  0  0  0  0  0  0  0  0  0
    9.3327   -0.5993    0.0000 H   0  0  0  0  0  0  0  0  0  0  0  0
    8.4643    0.5165    0.0000 H   0  0  0  0  0  0  0  0  0  0  0  0
    9.1919    2.1815    0.0000 H   0  0  0  0  0  0  0  0  0  0  0  0
    8.3948    2.1815    0.0000 H   0  0  0  0  0  0  0  0  0  0  0  0
   11.1430    1.8205    0.0000 H   0  0  0  0  0  0  0  0  0  0  0  0
   10.3546    2.0782    0.0000 H   0  0  0  0  0  0  0  0  0  0  0  0
   10.3546   -0.6651    0.0000 H   0  0  0  0  0  0  0  0  0  0  0  0
   11.1430   -0.4074    0.0000 H   0  0  0  0  0  0  0  0  0  0  0  0
    7.7153    1.7892    0.0000 H   0  0  0  0  0  0  0  0  0  0  0  0
    7.3168    1.0989    0.0000 H   0  0  0  0  0  0  0  0  0  0  0  0
   11.6501    0.2918    0.0000 H   0  0  0  0  0  0  0  0  0  0  0  0
   11.6501    1.1213    0.0000 H   0  0  0  0  0  0  0  0  0  0  0  0
    9.0275   -1.9154    0.0000 H   0  0  0  0  0  0  0  0  0  0  0  0
    9.4186   -1.2195    0.0000 H   0  0  0  0  0  0  0  0  0  0  0  0
   10.2794    2.2065    0.0000 H   0  0  0  0  0  0  0  0  0  0  0  0
    9.6594    2.8265    0.0000 H   0  0  0  0  0  0  0  0  0  0  0  0
    9.0394    2.2065    0.0000 H   0  0  0  0  0  0  0  0  0  0  0  0
    7.5141   -2.3387    0.0000 H   0  0  0  0  0  0  0  0  0  0  0  0
    8.3124   -2.3356    0.0000 H   0  0  0  0  0  0  0  0  0  0  0  0
    6.1024    0.8837    0.0000 H   0  0  0  0  0  0  0  0  0  0  0  0
    6.0763   -2.5116    0.0000 H   0  0  0  0  0  0  0  0  0  0  0  0
    4.6093    0.0520    0.0000 H   0  0  0  0  0  0  0  0  0  0  0  0
    2.0000   -1.1470    0.0000 H   0  0  0  0  0  0  0  0  0  0  0  0
  1  2  1  0  0  0  0
  1  3  1  0  0  0  0
  1  4  2  0  0  0  0
  1  5  2  0  0  0  0
  2 23  1  0  0  0  0
  3 47  1  0  0  0  0
  6  7  1  0  0  0  0
  6 10  1  0  0  0  0
  6 11  1  0  0  0  0
  6 16  1  0  0  0  0
  7  8  1  0  0  0  0
  7 12  1  0  0  0  0
  7 24  1  0  0  0  0
  8  9  1  0  0  0  0
  8 15  1  0  0  0  0
  8 25  1  0  0  0  0
  9 13  1  0  0  0  0
  9 17  1  0  0  0  0
  9 26  1  0  0  0  0
 10 13  1  0  0  0  0
 10 27  1  0  0  0  0
 10 28  1  0  0  0  0
 11 14  1  0  0  0  0
 11 29  1  0  0  0  0
 11 30  1  0  0  0  0
 12 14  1  0  0  0  0
 12 31  1  0  0  0  0
 12 32  1  0  0  0  0
 13 33  1  0  0  0  0
 13 34  1  0  0  0  0
 14 35  1  0  0  0  0
 14 36  1  0  0  0  0
 15 18  1  0  0  0  0
 15 37  1  0  0  0  0
 15 38  1  0  0  0  0
 16 39  1  0  0  0  0
 16 40  1  0  0  0  0
 16 41  1  0  0  0  0
 17 19  2  0  0  0  0
 17 20  1  0  0  0  0
 18 19  1  0  0  0  0
 18 42  1  0  0  0  0
 18 43  1  0  0  0  0
 19 21  1  0  0  0  0
 20 22  2  0  0  0  0
 20 44  1  0  0  0  0
 21 23  2  0  0  0  0
 21 45  1  0  0  0  0
 22 23  1  0  0  0  0
 22 46  1  0  0  0  0
M  END
> <PUBCHEM_COMPOUND_CID>
439761

> <PUBCHEM_COMPOUND_CANONICALIZED>
1

> <PUBCHEM_CACTVS_COMPLEXITY>
554

> <PUBCHEM_CACTVS_HBOND_ACCEPTOR>
4

> <PUBCHEM_CACTVS_HBOND_DONOR>
1

> <PUBCHEM_CACTVS_ROTATABLE_BOND>
2

> <PUBCHEM_CACTVS_SUBSKEYS>
AAADceB4OABAAAAAAAAAAAAAAAAAAYAAAAAwYMAAAAAAAGDBAAAAGgAACAAADwSAmAAyBoAAAICAAiBCADACAAAgIAAIiAAGCIgIJiKAERKAMAAkwBEIiAeAwPAPoAABAAAQAADAAAYAACAAAAAACAAAAA==

> <PUBCHEM_IUPAC_OPENEYE_NAME>
(13-methyl-6,7,8,9,11,12,14,15,16,17-decahydrocyclopenta[a]phenanthren-3-yl) hydrogen sulfate

> <PUBCHEM_IUPAC_CAS_NAME>
sulfuric acid (13-methyl-6,7,8,9,11,12,14,15,16,17-decahydrocyclopenta[a]phenanthren-3-yl) ester

> <PUBCHEM_IUPAC_NAME_MARKUP>
(13-methyl-6,7,8,9,11,12,14,15,16,17-decahydrocyclopenta[a]phenanthren-3-yl) hydrogen sulfate

> <PUBCHEM_IUPAC_NAME>
(13-methyl-6,7,8,9,11,12,14,15,16,17-decahydrocyclopenta[a]phenanthren-3-yl) hydrogen sulfate

> <PUBCHEM_IUPAC_SYSTEMATIC_NAME>
(13-methyl-6,7,8,9,11,12,14,15,16,17-decahydrocyclopenta[a]phenanthren-3-yl) hydrogen sulfate

> <PUBCHEM_IUPAC_TRADITIONAL_NAME>
sulfuric acid (13-methyl-6,7,8,9,11,12,14,15,16,17-decahydrocyclopenta[a]phenanthren-3-yl) ester

> <PUBCHEM_IUPAC_INCHI>
InChI=1S/C18H24O4S/c1-18-9-2-3-17(18)16-6-4-12-11-13(22-23(19,20)21)5-7-14(12)15(16)8-10-18/h5,7,11,15-17H,2-4,6,8-10H2,1H3,(H,19,20,21)

> <PUBCHEM_IUPAC_INCHIKEY>
KFFRVXQLZSOXIX-UHFFFAOYSA-N

> <PUBCHEM_XLOGP3_AA>
5

> <PUBCHEM_EXACT_MASS>
336.13953

> <PUBCHEM_MOLECULAR_FORMULA>
C18H24O4S

> <PUBCHEM_MOLECULAR_WEIGHT>
336.4

> <PUBCHEM_OPENEYE_CAN_SMILES>
CC12CCCC1C3CCC4=C(C3CC2)C=CC(=C4)OS(=O)(=O)O

> <PUBCHEM_OPENEYE_ISO_SMILES>
CC12CCCC1C3CCC4=C(C3CC2)C=CC(=C4)OS(=O)(=O)O

> <PUBCHEM_CACTVS_TPSA>
72

> <PUBCHEM_MONOISOTOPIC_WEIGHT>
336.13953

> <PUBCHEM_TOTAL_CHARGE>
0

> <PUBCHEM_HEAVY_ATOM_COUNT>
23

> <PUBCHEM_ATOM_DEF_STEREO_COUNT>
0

> <PUBCHEM_ATOM_UDEF_STEREO_COUNT>
4

> <PUBCHEM_BOND_DEF_STEREO_COUNT>
0

> <PUBCHEM_BOND_UDEF_STEREO_COUNT>
0

> <PUBCHEM_ISOTOPIC_ATOM_COUNT>
0

> <PUBCHEM_COMPONENT_COUNT>
1

> <PUBCHEM_CACTVS_TAUTO_COUNT>
-1

> <PUBCHEM_COORDINATE_TYPE>
1
5
255

> <PUBCHEM_BONDANNOTATIONS>
17  19  8
17  20  8
19  21  8
20  22  8
21  23  8
22  23  8
6  16  3
7  12  3
8  15  3
9  13  3

$$$$
439726
  -OEChem-04052116542D

 43 46  0     1  0  0  0  0  0999 V2000
    2.5357   -2.0032    0.0000 O   0  0  0  0  0  0  0  0  0  0  0  0
    7.9288    1.0491    0.0000 C   0  0  3  0  0  0  0  0  0  0  0  0
    7.9288    0.0491    0.0000 C   0  0  3  0  0  0  0  0  0  0  0  0
    7.0628   -0.4509    0.0000 C   0  0  3  0  0  0  0  0  0  0  0  0
    6.1968    0.0491    0.0000 C   0  0  3  0  0  0  0  0  0  0  0  0
    7.0628    1.5491    0.0000 C   0  0  0  0  0  0  0  0  0  0  0  0
    8.8750    1.3538    0.0000 C   0  0  0  0  0  0  0  0  0  0  0  0
    8.8750   -0.2556    0.0000 C   0  0  0  0  0  0  0  0  0  0  0  0
    6.1968    1.0491    0.0000 C   0  0  0  0  0  0  0  0  0  0  0  0
    9.4586    0.5491    0.0000 C   0  0  0  0  0  0  0  0  0  0  0  0
    7.0789   -1.4924    0.0000 C   0  0  0  0  0  0  0  0  0  0  0  0
    7.9288    2.0491    0.0000 C   0  0  0  0  0  0  0  0  0  0  0  0
    5.2868   -0.4578    0.0000 C   0  0  0  0  0  0  0  0  0  0  0  0
    6.1808   -2.0202    0.0000 C   0  0  0  0  0  0  0  0  0  0  0  0
    5.2787   -1.4994    0.0000 C   0  0  0  0  0  0  0  0  0  0  0  0
    4.3599    0.1063    0.0000 C   0  0  0  0  0  0  0  0  0  0  0  0
    4.3433   -2.0491    0.0000 C   0  0  0  0  0  0  0  0  0  0  0  0
    3.4120   -0.4216    0.0000 C   0  0  0  0  0  0  0  0  0  0  0  0
    3.4037   -1.5066    0.0000 C   0  0  0  0  0  0  0  0  0  0  0  0
    7.9944   -0.5674    0.0000 H   0  0  0  0  0  0  0  0  0  0  0  0
    7.6021   -0.7568    0.0000 H   0  0  0  0  0  0  0  0  0  0  0  0
    6.7337    0.3591    0.0000 H   0  0  0  0  0  0  0  0  0  0  0  0
    7.4613    2.0240    0.0000 H   0  0  0  0  0  0  0  0  0  0  0  0
    6.6643    2.0240    0.0000 H   0  0  0  0  0  0  0  0  0  0  0  0
    9.4124    1.6630    0.0000 H   0  0  0  0  0  0  0  0  0  0  0  0
    8.6240    1.9207    0.0000 H   0  0  0  0  0  0  0  0  0  0  0  0
    8.6240   -0.8226    0.0000 H   0  0  0  0  0  0  0  0  0  0  0  0
    9.4124   -0.5649    0.0000 H   0  0  0  0  0  0  0  0  0  0  0  0
    5.9847    1.6317    0.0000 H   0  0  0  0  0  0  0  0  0  0  0  0
    5.5862    0.9414    0.0000 H   0  0  0  0  0  0  0  0  0  0  0  0
    9.9195    0.1344    0.0000 H   0  0  0  0  0  0  0  0  0  0  0  0
    9.9195    0.9638    0.0000 H   0  0  0  0  0  0  0  0  0  0  0  0
    7.2969   -2.0728    0.0000 H   0  0  0  0  0  0  0  0  0  0  0  0
    7.6880   -1.3769    0.0000 H   0  0  0  0  0  0  0  0  0  0  0  0
    8.5488    2.0491    0.0000 H   0  0  0  0  0  0  0  0  0  0  0  0
    7.9288    2.6691    0.0000 H   0  0  0  0  0  0  0  0  0  0  0  0
    7.3088    2.0491    0.0000 H   0  0  0  0  0  0  0  0  0  0  0  0
    5.7835   -2.4962    0.0000 H   0  0  0  0  0  0  0  0  0  0  0  0
    6.5818   -2.4931    0.0000 H   0  0  0  0  0  0  0  0  0  0  0  0
    4.3719    0.7262    0.0000 H   0  0  0  0  0  0  0  0  0  0  0  0
    4.3457   -2.6691    0.0000 H   0  0  0  0  0  0  0  0  0  0  0  0
    2.8787   -0.1054    0.0000 H   0  0  0  0  0  0  0  0  0  0  0  0
    2.0000   -1.6912    0.0000 H   0  0  0  0  0  0  0  0  0  0  0  0
  1 19  1  0  0  0  0
  1 43  1  0  0  0  0
  2  3  1  0  0  0  0
  2  6  1  0  0  0  0
  2  7  1  0  0  0  0
  2 12  1  0  0  0  0
  3  4  1  0  0  0  0
  3  8  1  0  0  0  0
  3 20  1  0  0  0  0
  4  5  1  0  0  0  0
  4 11  1  0  0  0  0
  4 21  1  0  0  0  0
  5  9  1  0  0  0  0
  5 13  1  0  0  0  0
  5 22  1  0  0  0  0
  6  9  1  0  0  0  0
  6 23  1  0  0  0  0
  6 24  1  0  0  0  0
  7 10  1  0  0  0  0
  7 25  1  0  0  0  0
  7 26  1  0  0  0  0
  8 10  1  0  0  0  0
  8 27  1  0  0  0  0
  8 28  1  0  0  0  0
  9 29  1  0  0  0  0
  9 30  1  0  0  0  0
 10 31  1  0  0  0  0
 10 32  1  0  0  0  0
 11 14  1  0  0  0  0
 11 33  1  0  0  0  0
 11 34  1  0  0  0  0
 12 35  1  0  0  0  0
 12 36  1  0  0  0  0
 12 37  1  0  0  0  0
 13 15  2  0  0  0  0
 13 16  1  0  0  0  0
 14 15  1  0  0  0  0
 14 38  1  0  0  0  0
 14 39  1  0  0  0  0
 15 17  1  0  0  0  0
 16 18  2  0  0  0  0
 16 40  1  0  0  0  0
 17 19  2  0  0  0  0
 17 41  1  0  0  0  0
 18 19  1  0  0  0  0
 18 42  1  0  0  0  0
M  END
> <PUBCHEM_COMPOUND_CID>
439726

> <PUBCHEM_COMPOUND_CANONICALIZED>
1

> <PUBCHEM_CACTVS_COMPLEXITY>
352

> <PUBCHEM_CACTVS_HBOND_ACCEPTOR>
1

> <PUBCHEM_CACTVS_HBOND_DONOR>
1

> <PUBCHEM_CACTVS_ROTATABLE_BOND>
0

> <PUBCHEM_CACTVS_SUBSKEYS>
AAADceB4IAAAAAAAAAAAAAAAAAAAAYAAAAAwYMAAAAAAAGDBAAAAGgAACAAADwSAmAAyBoAAAgCAAiBCAAACAAAgIAAIiAAGCIgIJiKCERKAcAAkwBEImAeAwPAPoAABAAAQAADAAAYAACAAAAAACAAAAA==

> <PUBCHEM_IUPAC_OPENEYE_NAME>
13-methyl-6,7,8,9,11,12,14,15,16,17-decahydrocyclopenta[a]phenanthren-3-ol

> <PUBCHEM_IUPAC_CAS_NAME>
13-methyl-6,7,8,9,11,12,14,15,16,17-decahydrocyclopenta[a]phenanthren-3-ol

> <PUBCHEM_IUPAC_NAME_MARKUP>
13-methyl-6,7,8,9,11,12,14,15,16,17-decahydrocyclopenta[a]phenanthren-3-ol

> <PUBCHEM_IUPAC_NAME>
13-methyl-6,7,8,9,11,12,14,15,16,17-decahydrocyclopenta[a]phenanthren-3-ol

> <PUBCHEM_IUPAC_SYSTEMATIC_NAME>
13-methyl-6,7,8,9,11,12,14,15,16,17-decahydrocyclopenta[a]phenanthren-3-ol

> <PUBCHEM_IUPAC_TRADITIONAL_NAME>
13-methyl-6,7,8,9,11,12,14,15,16,17-decahydrocyclopenta[a]phenanthren-3-ol

> <PUBCHEM_IUPAC_INCHI>
InChI=1S/C18H24O/c1-18-9-2-3-17(18)16-6-4-12-11-13(19)5-7-14(12)15(16)8-10-18/h5,7,11,15-17,19H,2-4,6,8-10H2,1H3

> <PUBCHEM_IUPAC_INCHIKEY>
HJKVPZJVBHWFCQ-UHFFFAOYSA-N

> <PUBCHEM_XLOGP3_AA>
5.6

> <PUBCHEM_EXACT_MASS>
256.182715

> <PUBCHEM_MOLECULAR_FORMULA>
C18H24O

> <PUBCHEM_MOLECULAR_WEIGHT>
256.4

> <PUBCHEM_OPENEYE_CAN_SMILES>
CC12CCCC1C3CCC4=C(C3CC2)C=CC(=C4)O

> <PUBCHEM_OPENEYE_ISO_SMILES>
CC12CCCC1C3CCC4=C(C3CC2)C=CC(=C4)O

> <PUBCHEM_CACTVS_TPSA>
20.2

> <PUBCHEM_MONOISOTOPIC_WEIGHT>
256.182715

> <PUBCHEM_TOTAL_CHARGE>
0

> <PUBCHEM_HEAVY_ATOM_COUNT>
19

> <PUBCHEM_ATOM_DEF_STEREO_COUNT>
0

> <PUBCHEM_ATOM_UDEF_STEREO_COUNT>
4

> <PUBCHEM_BOND_DEF_STEREO_COUNT>
0

> <PUBCHEM_BOND_UDEF_STEREO_COUNT>
0

> <PUBCHEM_ISOTOPIC_ATOM_COUNT>
0

> <PUBCHEM_COMPONENT_COUNT>
1

> <PUBCHEM_CACTVS_TAUTO_COUNT>
-1

> <PUBCHEM_COORDINATE_TYPE>
1
5
255

> <PUBCHEM_BONDANNOTATIONS>
13  15  8
13  16  8
15  17  8
16  18  8
17  19  8
18  19  8
2  12  3
3  8  3
4  11  3
5  9  3

$$$$
275525
  -OEChem-04052116542D

 45 47  0     0  0  0  0  0  0999 V2000
    6.3981   -0.3673    0.0000 O   0  0  0  0  0  0  0  0  0  0  0  0
    4.6497    2.6673    0.0000 O   0  0  0  0  0  0  0  0  0  0  0  0
    2.8680    1.6569    0.0000 O   0  0  0  0  0  0  0  0  0  0  0  0
    2.8680   -0.3914    0.0000 O   0  0  0  0  0  0  0  0  0  0  0  0
    8.1301    1.6327    0.0000 O   0  0  0  0  0  0  0  0  0  0  0  0
    6.3981    2.6327    0.0000 O   0  0  0  0  0  0  0  0  0  0  0  0
   10.7282   -1.8673    0.0000 O   0  0  0  0  0  0  0  0  0  0  0  0
    8.9962   -2.8673    0.0000 O   0  0  0  0  0  0  0  0  0  0  0  0
    5.5320    1.1327    0.0000 C   0  0  0  0  0  0  0  0  0  0  0  0
    5.5320    0.1327    0.0000 C   0  0  0  0  0  0  0  0  0  0  0  0
    4.6381    1.6674    0.0000 C   0  0  0  0  0  0  0  0  0  0  0  0
    7.2641    0.1327    0.0000 C   0  0  0  0  0  0  0  0  0  0  0  0
    6.3981    1.6327    0.0000 C   0  0  0  0  0  0  0  0  0  0  0  0
    3.7320    1.1535    0.0000 C   0  0  0  0  0  0  0  0  0  0  0  0
    7.2641    1.1327    0.0000 C   0  0  0  0  0  0  0  0  0  0  0  0
    4.6381   -0.4019    0.0000 C   0  0  0  0  0  0  0  0  0  0  0  0
    8.1301   -0.3673    0.0000 C   0  0  0  0  0  0  0  0  0  0  0  0
    3.7320    0.1119    0.0000 C   0  0  0  0  0  0  0  0  0  0  0  0
    8.1301   -1.3673    0.0000 C   0  0  0  0  0  0  0  0  0  0  0  0
    8.9962    0.1327    0.0000 C   0  0  0  0  0  0  0  0  0  0  0  0
    8.9962   -1.8673    0.0000 C   0  0  0  0  0  0  0  0  0  0  0  0
    9.8622   -0.3673    0.0000 C   0  0  0  0  0  0  0  0  0  0  0  0
    9.8622   -1.3673    0.0000 C   0  0  0  0  0  0  0  0  0  0  0  0
    3.7895    3.1773    0.0000 C   0  0  0  0  0  0  0  0  0  0  0  0
    2.0000    1.1602    0.0000 C   0  0  0  0  0  0  0  0  0  0  0  0
    2.8718   -1.3914    0.0000 C   0  0  0  0  0  0  0  0  0  0  0  0
   11.5942   -1.3673    0.0000 C   0  0  0  0  0  0  0  0  0  0  0  0
    4.6453   -1.0219    0.0000 H   0  0  0  0  0  0  0  0  0  0  0  0
    7.5932   -1.6773    0.0000 H   0  0  0  0  0  0  0  0  0  0  0  0
    8.9962    0.7527    0.0000 H   0  0  0  0  0  0  0  0  0  0  0  0
   10.3991   -0.0573    0.0000 H   0  0  0  0  0  0  0  0  0  0  0  0
    8.1301    2.2527    0.0000 H   0  0  0  0  0  0  0  0  0  0  0  0
    4.1057    3.7106    0.0000 H   0  0  0  0  0  0  0  0  0  0  0  0
    3.2562    3.4935    0.0000 H   0  0  0  0  0  0  0  0  0  0  0  0
    3.4733    2.6440    0.0000 H   0  0  0  0  0  0  0  0  0  0  0  0
    1.6921    1.6983    0.0000 H   0  0  0  0  0  0  0  0  0  0  0  0
    1.4619    0.8523    0.0000 H   0  0  0  0  0  0  0  0  0  0  0  0
    2.3079    0.6221    0.0000 H   0  0  0  0  0  0  0  0  0  0  0  0
    2.2518   -1.3938    0.0000 H   0  0  0  0  0  0  0  0  0  0  0  0
    2.8742   -2.0114    0.0000 H   0  0  0  0  0  0  0  0  0  0  0  0
    3.4918   -1.3890    0.0000 H   0  0  0  0  0  0  0  0  0  0  0  0
    9.5331   -3.1773    0.0000 H   0  0  0  0  0  0  0  0  0  0  0  0
   11.9042   -1.9042    0.0000 H   0  0  0  0  0  0  0  0  0  0  0  0
   12.1312   -1.0573    0.0000 H   0  0  0  0  0  0  0  0  0  0  0  0
   11.2842   -0.8304    0.0000 H   0  0  0  0  0  0  0  0  0  0  0  0
  1 10  1  0  0  0  0
  1 12  1  0  0  0  0
  2 11  1  0  0  0  0
  2 24  1  0  0  0  0
  3 14  1  0  0  0  0
  3 25  1  0  0  0  0
  4 18  1  0  0  0  0
  4 26  1  0  0  0  0
  5 15  1  0  0  0  0
  5 32  1  0  0  0  0
  6 13  2  0  0  0  0
  7 23  1  0  0  0  0
  7 27  1  0  0  0  0
  8 21  1  0  0  0  0
  8 42  1  0  0  0  0
  9 10  1  0  0  0  0
  9 11  2  0  0  0  0
  9 13  1  0  0  0  0
 10 16  2  0  0  0  0
 11 14  1  0  0  0  0
 12 15  2  0  0  0  0
 12 17  1  0  0  0  0
 13 15  1  0  0  0  0
 14 18  2  0  0  0  0
 16 18  1  0  0  0  0
 16 28  1  0  0  0  0
 17 19  2  0  0  0  0
 17 20  1  0  0  0  0
 19 21  1  0  0  0  0
 19 29  1  0  0  0  0
 20 22  2  0  0  0  0
 20 30  1  0  0  0  0
 21 23  2  0  0  0  0
 22 23  1  0  0  0  0
 22 31  1  0  0  0  0
 24 33  1  0  0  0  0
 24 34  1  0  0  0  0
 24 35  1  0  0  0  0
 25 36  1  0  0  0  0
 25 37  1  0  0  0  0
 25 38  1  0  0  0  0
 26 39  1  0  0  0  0
 26 40  1  0  0  0  0
 26 41  1  0  0  0  0
 27 43  1  0  0  0  0
 27 44  1  0  0  0  0
 27 45  1  0  0  0  0
M  END
> <PUBCHEM_COMPOUND_CID>
275525

> <PUBCHEM_COMPOUND_CANONICALIZED>
1

> <PUBCHEM_CACTVS_COMPLEXITY>
576

> <PUBCHEM_CACTVS_HBOND_ACCEPTOR>
8

> <PUBCHEM_CACTVS_HBOND_DONOR>
2

> <PUBCHEM_CACTVS_ROTATABLE_BOND>
5

> <PUBCHEM_CACTVS_SUBSKEYS>
AAADceB4PAAAAAAAAAAAAAAAAAAAAAAAAAAwYIAAAAAAAACBQAAAGgAACAAADASAmAIyBoAABgCIAqBSAAICCAAkIAAIiAFGiMgNJzaGNRqCeWOl4BULuQfK7LzOIQABCAAIQABCAAIQABCAAAAAAAAAAA==

> <PUBCHEM_IUPAC_OPENEYE_NAME>
3-hydroxy-2-(3-hydroxy-4-methoxy-phenyl)-5,6,7-trimethoxy-chromen-4-one

> <PUBCHEM_IUPAC_CAS_NAME>
3-hydroxy-2-(3-hydroxy-4-methoxyphenyl)-5,6,7-trimethoxy-1-benzopyran-4-one

> <PUBCHEM_IUPAC_NAME_MARKUP>
3-hydroxy-2-(3-hydroxy-4-methoxyphenyl)-5,6,7-trimethoxychromen-4-one

> <PUBCHEM_IUPAC_NAME>
3-hydroxy-2-(3-hydroxy-4-methoxyphenyl)-5,6,7-trimethoxychromen-4-one

> <PUBCHEM_IUPAC_SYSTEMATIC_NAME>
5,6,7-trimethoxy-2-(4-methoxy-3-oxidanyl-phenyl)-3-oxidanyl-chromen-4-one

> <PUBCHEM_IUPAC_TRADITIONAL_NAME>
3-hydroxy-2-(3-hydroxy-4-methoxy-phenyl)-5,6,7-trimethoxy-chromone

> <PUBCHEM_IUPAC_INCHI>
InChI=1S/C19H18O8/c1-23-11-6-5-9(7-10(11)20)17-16(22)15(21)14-12(27-17)8-13(24-2)18(25-3)19(14)26-4/h5-8,20,22H,1-4H3

> <PUBCHEM_IUPAC_INCHIKEY>
UEPKLBOJSLVOIP-UHFFFAOYSA-N

> <PUBCHEM_XLOGP3_AA>
2.6

> <PUBCHEM_EXACT_MASS>
374.100168

> <PUBCHEM_MOLECULAR_FORMULA>
C19H18O8

> <PUBCHEM_MOLECULAR_WEIGHT>
374.3

> <PUBCHEM_OPENEYE_CAN_SMILES>
COC1=C(C=C(C=C1)C2=C(C(=O)C3=C(C(=C(C=C3O2)OC)OC)OC)O)O

> <PUBCHEM_OPENEYE_ISO_SMILES>
COC1=C(C=C(C=C1)C2=C(C(=O)C3=C(C(=C(C=C3O2)OC)OC)OC)O)O

> <PUBCHEM_CACTVS_TPSA>
104

> <PUBCHEM_MONOISOTOPIC_WEIGHT>
374.100168

> <PUBCHEM_TOTAL_CHARGE>
0

> <PUBCHEM_HEAVY_ATOM_COUNT>
27

> <PUBCHEM_ATOM_DEF_STEREO_COUNT>
0

> <PUBCHEM_ATOM_UDEF_STEREO_COUNT>
0

> <PUBCHEM_BOND_DEF_STEREO_COUNT>
0

> <PUBCHEM_BOND_UDEF_STEREO_COUNT>
0

> <PUBCHEM_ISOTOPIC_ATOM_COUNT>
0

> <PUBCHEM_COMPONENT_COUNT>
1

> <PUBCHEM_CACTVS_TAUTO_COUNT>
-1

> <PUBCHEM_COORDINATE_TYPE>
1
5
255

> <PUBCHEM_BONDANNOTATIONS>
1  10  8
1  12  8
10  16  8
11  14  8
12  15  8
13  15  8
14  18  8
16  18  8
17  19  8
17  20  8
19  21  8
20  22  8
21  23  8
22  23  8
9  10  8
9  11  8
9  13  8

$$$$
265703
  -OEChem-04052116542D

 28 30  0     1  0  0  0  0  0999 V2000
    4.6660   -0.7500    0.0000 O   0  0  0  0  0  0  0  0  0  0  0  0
    6.3981    1.2500    0.0000 O   0  0  0  0  0  0  0  0  0  0  0  0
    4.6660    2.2500    0.0000 O   0  0  0  0  0  0  0  0  0  0  0  0
    5.5321   -0.2500    0.0000 C   0  0  3  0  0  0  0  0  0  0  0  0
    6.3981   -0.7500    0.0000 C   0  0  0  0  0  0  0  0  0  0  0  0
    5.5321    0.7500    0.0000 C   0  0  0  0  0  0  0  0  0  0  0  0
    3.8000    0.7500    0.0000 C   0  0  0  0  0  0  0  0  0  0  0  0
    3.8000   -0.2500    0.0000 C   0  0  0  0  0  0  0  0  0  0  0  0
    4.6660    1.2500    0.0000 C   0  0  0  0  0  0  0  0  0  0  0  0
    6.3981   -1.7500    0.0000 C   0  0  0  0  0  0  0  0  0  0  0  0
    7.2641   -0.2500    0.0000 C   0  0  0  0  0  0  0  0  0  0  0  0
    2.9061    1.2847    0.0000 C   0  0  0  0  0  0  0  0  0  0  0  0
    2.9061   -0.7847    0.0000 C   0  0  0  0  0  0  0  0  0  0  0  0
    2.0000    0.7708    0.0000 C   0  0  0  0  0  0  0  0  0  0  0  0
    2.0000   -0.2708    0.0000 C   0  0  0  0  0  0  0  0  0  0  0  0
    7.2641   -2.2500    0.0000 C   0  0  0  0  0  0  0  0  0  0  0  0
    8.1301   -0.7500    0.0000 C   0  0  0  0  0  0  0  0  0  0  0  0
    8.1301   -1.7500    0.0000 C   0  0  0  0  0  0  0  0  0  0  0  0
    5.5321   -0.8700    0.0000 H   0  0  0  0  0  0  0  0  0  0  0  0
    5.8612   -2.0600    0.0000 H   0  0  0  0  0  0  0  0  0  0  0  0
    7.2641    0.3700    0.0000 H   0  0  0  0  0  0  0  0  0  0  0  0
    2.9132    1.9046    0.0000 H   0  0  0  0  0  0  0  0  0  0  0  0
    2.9132   -1.4046    0.0000 H   0  0  0  0  0  0  0  0  0  0  0  0
    1.4643    1.0829    0.0000 H   0  0  0  0  0  0  0  0  0  0  0  0
    1.4643   -0.5829    0.0000 H   0  0  0  0  0  0  0  0  0  0  0  0
    7.2641   -2.8700    0.0000 H   0  0  0  0  0  0  0  0  0  0  0  0
    8.6671   -0.4400    0.0000 H   0  0  0  0  0  0  0  0  0  0  0  0
    8.6671   -2.0600    0.0000 H   0  0  0  0  0  0  0  0  0  0  0  0
  1  4  1  0  0  0  0
  1  8  1  0  0  0  0
  2  6  2  0  0  0  0
  3  9  2  0  0  0  0
  4  5  1  0  0  0  0
  4  6  1  0  0  0  0
  4 19  1  0  0  0  0
  5 10  2  0  0  0  0
  5 11  1  0  0  0  0
  6  9  1  0  0  0  0
  7  8  1  0  0  0  0
  7  9  1  0  0  0  0
  7 12  2  0  0  0  0
  8 13  2  0  0  0  0
 10 16  1  0  0  0  0
 10 20  1  0  0  0  0
 11 17  2  0  0  0  0
 11 21  1  0  0  0  0
 12 14  1  0  0  0  0
 12 22  1  0  0  0  0
 13 15  1  0  0  0  0
 13 23  1  0  0  0  0
 14 15  2  0  0  0  0
 14 24  1  0  0  0  0
 15 25  1  0  0  0  0
 16 18  2  0  0  0  0
 16 26  1  0  0  0  0
 17 18  1  0  0  0  0
 17 27  1  0  0  0  0
 18 28  1  0  0  0  0
M  END
> <PUBCHEM_COMPOUND_CID>
265703

> <PUBCHEM_COMPOUND_CANONICALIZED>
1

> <PUBCHEM_CACTVS_COMPLEXITY>
344

> <PUBCHEM_CACTVS_HBOND_ACCEPTOR>
3

> <PUBCHEM_CACTVS_HBOND_DONOR>
0

> <PUBCHEM_CACTVS_ROTATABLE_BOND>
1

> <PUBCHEM_CACTVS_SUBSKEYS>
AAADccBwMAAAAAAAAAAAAAAAAAAAAAAAAAA0YIAAAAAAAACRQAAAGgAAAAAADBSgmAIwBoAABACIAqBSAAICCAAkIAAIiAFGCMgMJjaENR6COWCk4BEIqYeKyOCOAAAAAAAIAAAAAAAAABAAAAAAAAAAAA==

> <PUBCHEM_IUPAC_OPENEYE_NAME>
2-phenylchromane-3,4-dione

> <PUBCHEM_IUPAC_CAS_NAME>
2-phenyl-3,4-dihydro-2H-1-benzopyran-3,4-dione

> <PUBCHEM_IUPAC_NAME_MARKUP>
2-phenylchromene-3,4-dione

> <PUBCHEM_IUPAC_NAME>
2-phenylchromene-3,4-dione

> <PUBCHEM_IUPAC_SYSTEMATIC_NAME>
2-phenylchromene-3,4-dione

> <PUBCHEM_IUPAC_TRADITIONAL_NAME>
2-phenylchroman-3,4-quinone

> <PUBCHEM_IUPAC_INCHI>
InChI=1S/C15H10O3/c16-13-11-8-4-5-9-12(11)18-15(14(13)17)10-6-2-1-3-7-10/h1-9,15H

> <PUBCHEM_IUPAC_INCHIKEY>
YTAQZPGBTPDBPW-UHFFFAOYSA-N

> <PUBCHEM_XLOGP3_AA>
2.7

> <PUBCHEM_EXACT_MASS>
238.062994

> <PUBCHEM_MOLECULAR_FORMULA>
C15H10O3

> <PUBCHEM_MOLECULAR_WEIGHT>
238.24

> <PUBCHEM_OPENEYE_CAN_SMILES>
C1=CC=C(C=C1)C2C(=O)C(=O)C3=CC=CC=C3O2

> <PUBCHEM_OPENEYE_ISO_SMILES>
C1=CC=C(C=C1)C2C(=O)C(=O)C3=CC=CC=C3O2

> <PUBCHEM_CACTVS_TPSA>
43.4

> <PUBCHEM_MONOISOTOPIC_WEIGHT>
238.062994

> <PUBCHEM_TOTAL_CHARGE>
0

> <PUBCHEM_HEAVY_ATOM_COUNT>
18

> <PUBCHEM_ATOM_DEF_STEREO_COUNT>
0

> <PUBCHEM_ATOM_UDEF_STEREO_COUNT>
1

> <PUBCHEM_BOND_DEF_STEREO_COUNT>
0

> <PUBCHEM_BOND_UDEF_STEREO_COUNT>
0

> <PUBCHEM_ISOTOPIC_ATOM_COUNT>
0

> <PUBCHEM_COMPONENT_COUNT>
1

> <PUBCHEM_CACTVS_TAUTO_COUNT>
-1

> <PUBCHEM_COORDINATE_TYPE>
1
5
255

> <PUBCHEM_BONDANNOTATIONS>
10  16  8
11  17  8
12  14  8
13  15  8
14  15  8
16  18  8
17  18  8
4  5  3
5  10  8
5  11  8
7  12  8
7  8  8
8  13  8

$$$$
250395
  -OEChem-04052116542D

 69 72  0     1  0  0  0  0  0999 V2000
    6.8671    1.0000    0.0000 O   0  0  0  0  0  0  0  0  0  0  0  0
    6.8671   -2.0000    0.0000 O   0  0  0  0  0  0  0  0  0  0  0  0
    5.1350   -1.0000    0.0000 O   0  0  0  0  0  0  0  0  0  0  0  0
    8.5991   -1.0000    0.0000 O   0  0  0  0  0  0  0  0  0  0  0  0
    8.5991    1.0000    0.0000 O   0  0  0  0  0  0  0  0  0  0  0  0
    5.1350    2.0000    0.0000 O   0  0  0  0  0  0  0  0  0  0  0  0
    5.1350   -2.0000    0.0000 O   0  0  0  0  0  0  0  0  0  0  0  0
    7.7331    2.5000    0.0000 O   0  0  0  0  0  0  0  0  0  0  0  0
    3.4030    2.0000    0.0000 O   0  0  0  0  0  0  0  0  0  0  0  0
    7.7331   -5.5000    0.0000 O   0  0  0  0  0  0  0  0  0  0  0  0
    4.2690   -5.5000    0.0000 O   0  0  0  0  0  0  0  0  0  0  0  0
    6.0010   -6.5000    0.0000 O   0  0  0  0  0  0  0  0  0  0  0  0
   10.3312    5.0000    0.0000 O   0  0  0  0  0  0  0  0  0  0  0  0
   12.0632    2.0000    0.0000 O   0  0  0  0  0  0  0  0  0  0  0  0
   12.0632    4.0000    0.0000 O   0  0  0  0  0  0  0  0  0  0  0  0
    2.5369    5.5000    0.0000 O   0  0  0  0  0  0  0  0  0  0  0  0
    6.0010    5.5000    0.0000 O   0  0  0  0  0  0  0  0  0  0  0  0
    4.2690    6.5000    0.0000 O   0  0  0  0  0  0  0  0  0  0  0  0
    6.8671   -1.0000    0.0000 C   0  0  3  0  0  0  0  0  0  0  0  0
    6.0010   -0.5000    0.0000 C   0  0  3  0  0  0  0  0  0  0  0  0
    6.0010    0.5000    0.0000 C   0  0  3  0  0  0  0  0  0  0  0  0
    7.7331   -0.5000    0.0000 C   0  0  3  0  0  0  0  0  0  0  0  0
    7.7331    0.5000    0.0000 C   0  0  3  0  0  0  0  0  0  0  0  0
    5.1350    1.0000    0.0000 C   0  0  0  0  0  0  0  0  0  0  0  0
    6.0010   -2.5000    0.0000 C   0  0  0  0  0  0  0  0  0  0  0  0
    8.5991    2.0000    0.0000 C   0  0  0  0  0  0  0  0  0  0  0  0
    6.0010   -3.5000    0.0000 C   0  0  0  0  0  0  0  0  0  0  0  0
    4.2690    2.5000    0.0000 C   0  0  0  0  0  0  0  0  0  0  0  0
    9.4651    2.5000    0.0000 C   0  0  0  0  0  0  0  0  0  0  0  0
    4.2690    3.5000    0.0000 C   0  0  0  0  0  0  0  0  0  0  0  0
    5.1350   -4.0000    0.0000 C   0  0  0  0  0  0  0  0  0  0  0  0
    6.8671   -4.0000    0.0000 C   0  0  0  0  0  0  0  0  0  0  0  0
   10.3312    2.0000    0.0000 C   0  0  0  0  0  0  0  0  0  0  0  0
    9.4651    3.5000    0.0000 C   0  0  0  0  0  0  0  0  0  0  0  0
    6.8671   -5.0000    0.0000 C   0  0  0  0  0  0  0  0  0  0  0  0
    5.1350   -5.0000    0.0000 C   0  0  0  0  0  0  0  0  0  0  0  0
    5.1350    4.0000    0.0000 C   0  0  0  0  0  0  0  0  0  0  0  0
    3.4030    4.0000    0.0000 C   0  0  0  0  0  0  0  0  0  0  0  0
    6.0010   -5.5000    0.0000 C   0  0  0  0  0  0  0  0  0  0  0  0
   10.3312    4.0000    0.0000 C   0  0  0  0  0  0  0  0  0  0  0  0
   11.1972    2.5000    0.0000 C   0  0  0  0  0  0  0  0  0  0  0  0
   11.1972    3.5000    0.0000 C   0  0  0  0  0  0  0  0  0  0  0  0
    3.4030    5.0000    0.0000 C   0  0  0  0  0  0  0  0  0  0  0  0
    5.1350    5.0000    0.0000 C   0  0  0  0  0  0  0  0  0  0  0  0
    4.2690    5.5000    0.0000 C   0  0  0  0  0  0  0  0  0  0  0  0
    6.3301   -1.3100    0.0000 H   0  0  0  0  0  0  0  0  0  0  0  0
    6.0010   -1.1200    0.0000 H   0  0  0  0  0  0  0  0  0  0  0  0
    6.0010    1.1200    0.0000 H   0  0  0  0  0  0  0  0  0  0  0  0
    7.7331   -1.1200    0.0000 H   0  0  0  0  0  0  0  0  0  0  0  0
    7.7331    1.1200    0.0000 H   0  0  0  0  0  0  0  0  0  0  0  0
    4.5244    1.1077    0.0000 H   0  0  0  0  0  0  0  0  0  0  0  0
    4.9230    0.4174    0.0000 H   0  0  0  0  0  0  0  0  0  0  0  0
    4.5981   -0.6900    0.0000 H   0  0  0  0  0  0  0  0  0  0  0  0
    9.1360   -0.6900    0.0000 H   0  0  0  0  0  0  0  0  0  0  0  0
    4.5981   -3.6900    0.0000 H   0  0  0  0  0  0  0  0  0  0  0  0
    7.4040   -3.6900    0.0000 H   0  0  0  0  0  0  0  0  0  0  0  0
   10.3312    1.3800    0.0000 H   0  0  0  0  0  0  0  0  0  0  0  0
    8.9282    3.8100    0.0000 H   0  0  0  0  0  0  0  0  0  0  0  0
    5.6720    3.6900    0.0000 H   0  0  0  0  0  0  0  0  0  0  0  0
    2.8660    3.6900    0.0000 H   0  0  0  0  0  0  0  0  0  0  0  0
    8.2700   -5.1900    0.0000 H   0  0  0  0  0  0  0  0  0  0  0  0
    3.7320   -5.1900    0.0000 H   0  0  0  0  0  0  0  0  0  0  0  0
    5.4641   -6.8100    0.0000 H   0  0  0  0  0  0  0  0  0  0  0  0
    9.7942    5.3100    0.0000 H   0  0  0  0  0  0  0  0  0  0  0  0
   12.0632    1.3800    0.0000 H   0  0  0  0  0  0  0  0  0  0  0  0
   12.6002    3.6900    0.0000 H   0  0  0  0  0  0  0  0  0  0  0  0
    2.0000    5.1900    0.0000 H   0  0  0  0  0  0  0  0  0  0  0  0
    6.0010    6.1200    0.0000 H   0  0  0  0  0  0  0  0  0  0  0  0
    3.7320    6.8100    0.0000 H   0  0  0  0  0  0  0  0  0  0  0  0
  1 21  1  0  0  0  0
  1 23  1  0  0  0  0
  2 19  1  0  0  0  0
  2 25  1  0  0  0  0
  3 20  1  0  0  0  0
  3 53  1  0  0  0  0
  4 22  1  0  0  0  0
  4 54  1  0  0  0  0
  5 23  1  0  0  0  0
  5 26  1  0  0  0  0
  6 24  1  0  0  0  0
  6 28  1  0  0  0  0
  7 25  2  0  0  0  0
  8 26  2  0  0  0  0
  9 28  2  0  0  0  0
 10 35  1  0  0  0  0
 10 61  1  0  0  0  0
 11 36  1  0  0  0  0
 11 62  1  0  0  0  0
 12 39  1  0  0  0  0
 12 63  1  0  0  0  0
 13 40  1  0  0  0  0
 13 64  1  0  0  0  0
 14 41  1  0  0  0  0
 14 65  1  0  0  0  0
 15 42  1  0  0  0  0
 15 66  1  0  0  0  0
 16 43  1  0  0  0  0
 16 67  1  0  0  0  0
 17 44  1  0  0  0  0
 17 68  1  0  0  0  0
 18 45  1  0  0  0  0
 18 69  1  0  0  0  0
 19 20  1  0  0  0  0
 19 22  1  0  0  0  0
 19 46  1  0  0  0  0
 20 21  1  0  0  0  0
 20 47  1  0  0  0  0
 21 24  1  0  0  0  0
 21 48  1  0  0  0  0
 22 23  1  0  0  0  0
 22 49  1  0  0  0  0
 23 50  1  0  0  0  0
 24 51  1  0  0  0  0
 24 52  1  0  0  0  0
 25 27  1  0  0  0  0
 26 29  1  0  0  0  0
 27 31  2  0  0  0  0
 27 32  1  0  0  0  0
 28 30  1  0  0  0  0
 29 33  2  0  0  0  0
 29 34  1  0  0  0  0
 30 37  2  0  0  0  0
 30 38  1  0  0  0  0
 31 36  1  0  0  0  0
 31 55  1  0  0  0  0
 32 35  2  0  0  0  0
 32 56  1  0  0  0  0
 33 41  1  0  0  0  0
 33 57  1  0  0  0  0
 34 40  2  0  0  0  0
 34 58  1  0  0  0  0
 35 39  1  0  0  0  0
 36 39  2  0  0  0  0
 37 44  1  0  0  0  0
 37 59  1  0  0  0  0
 38 43  2  0  0  0  0
 38 60  1  0  0  0  0
 40 42  1  0  0  0  0
 41 42  2  0  0  0  0
 43 45  1  0  0  0  0
 44 45  2  0  0  0  0
M  END
> <PUBCHEM_COMPOUND_CID>
250395

> <PUBCHEM_COMPOUND_CANONICALIZED>
1

> <PUBCHEM_CACTVS_COMPLEXITY>
1010

> <PUBCHEM_CACTVS_HBOND_ACCEPTOR>
18

> <PUBCHEM_CACTVS_HBOND_DONOR>
11

> <PUBCHEM_CACTVS_ROTATABLE_BOND>
10

> <PUBCHEM_CACTVS_SUBSKEYS>
AAADceB4PgAAAAAAAAAAAAAAAAAAAAAAAAA0YMEAAAAAAAABUAAAGgAACAAADBSwmAMwDoAABgCIAiDSCAACAAAkIAAAiAEGiMgZNzKCNRqicQElwBUPuYfK7DzOIAABCAAAQABAAAIQAACAAAAAAAAAAA==

> <PUBCHEM_IUPAC_OPENEYE_NAME>
[3,5-dihydroxy-4,6-bis[(3,4,5-trihydroxybenzoyl)oxy]tetrahydropyran-2-yl]methyl 3,4,5-trihydroxybenzoate

> <PUBCHEM_IUPAC_CAS_NAME>
3,4,5-trihydroxybenzoic acid [3,5-dihydroxy-4,6-bis[oxo-(3,4,5-trihydroxyphenyl)methoxy]-2-oxanyl]methyl ester

> <PUBCHEM_IUPAC_NAME_MARKUP>
[3,5-dihydroxy-4,6-bis[(3,4,5-trihydroxybenzoyl)oxy]oxan-2-yl]methyl 3,4,5-trihydroxybenzoate

> <PUBCHEM_IUPAC_NAME>
[3,5-dihydroxy-4,6-bis[(3,4,5-trihydroxybenzoyl)oxy]oxan-2-yl]methyl 3,4,5-trihydroxybenzoate

> <PUBCHEM_IUPAC_SYSTEMATIC_NAME>
[3,5-bis(oxidanyl)-4,6-bis[[3,4,5-tris(oxidanyl)phenyl]carbonyloxy]oxan-2-yl]methyl 3,4,5-tris(oxidanyl)benzoate

> <PUBCHEM_IUPAC_TRADITIONAL_NAME>
3,4,5-trihydroxybenzoic acid (4,6-digalloyloxy-3,5-dihydroxy-tetrahydropyran-2-yl)methyl ester

> <PUBCHEM_IUPAC_INCHI>
InChI=1S/C27H24O18/c28-11-1-8(2-12(29)18(11)34)24(39)42-7-17-21(37)23(44-25(40)9-3-13(30)19(35)14(31)4-9)22(38)27(43-17)45-26(41)10-5-15(32)20(36)16(33)6-10/h1-6,17,21-23,27-38H,7H2

> <PUBCHEM_IUPAC_INCHIKEY>
RNKMOGIPOMVCHO-UHFFFAOYSA-N

> <PUBCHEM_XLOGP3_AA>
0.4

> <PUBCHEM_EXACT_MASS>
636.096264

> <PUBCHEM_MOLECULAR_FORMULA>
C27H24O18

> <PUBCHEM_MOLECULAR_WEIGHT>
636.5

> <PUBCHEM_OPENEYE_CAN_SMILES>
C1=C(C=C(C(=C1O)O)O)C(=O)OCC2C(C(C(C(O2)OC(=O)C3=CC(=C(C(=C3)O)O)O)O)OC(=O)C4=CC(=C(C(=C4)O)O)O)O

> <PUBCHEM_OPENEYE_ISO_SMILES>
C1=C(C=C(C(=C1O)O)O)C(=O)OCC2C(C(C(C(O2)OC(=O)C3=CC(=C(C(=C3)O)O)O)O)OC(=O)C4=CC(=C(C(=C4)O)O)O)O

> <PUBCHEM_CACTVS_TPSA>
311

> <PUBCHEM_MONOISOTOPIC_WEIGHT>
636.096264

> <PUBCHEM_TOTAL_CHARGE>
0

> <PUBCHEM_HEAVY_ATOM_COUNT>
45

> <PUBCHEM_ATOM_DEF_STEREO_COUNT>
0

> <PUBCHEM_ATOM_UDEF_STEREO_COUNT>
5

> <PUBCHEM_BOND_DEF_STEREO_COUNT>
0

> <PUBCHEM_BOND_UDEF_STEREO_COUNT>
0

> <PUBCHEM_ISOTOPIC_ATOM_COUNT>
0

> <PUBCHEM_COMPONENT_COUNT>
1

> <PUBCHEM_CACTVS_TAUTO_COUNT>
-1

> <PUBCHEM_COORDINATE_TYPE>
1
5
255

> <PUBCHEM_BONDANNOTATIONS>
19  2  3
21  24  3
27  31  8
27  32  8
29  33  8
29  34  8
20  3  3
30  37  8
30  38  8
31  36  8
32  35  8
33  41  8
34  40  8
35  39  8
36  39  8
37  44  8
38  43  8
22  4  3
40  42  8
41  42  8
43  45  8
44  45  8
23  5  3

$$$$
213708
  -OEChem-04052116542D

 37 37  0     0  0  0  0  0  0999 V2000
    3.9597    0.6546    0.0000 O   0  0  0  0  0  0  0  0  0  0  0  0
    9.2219    0.6305    0.0000 O   0  0  0  0  0  0  0  0  0  0  0  0
    6.5914    8.9491    0.0000 O   0  0  0  0  0  0  0  0  0  0  0  0
    0.0000    4.0695    0.0000 O   0  0  0  0  0  0  0  0  0  0  0  0
    6.5578    1.1546    0.0000 C   0  0  0  0  0  0  0  0  0  0  0  0
    6.5578    2.1546    0.0000 C   0  0  0  0  0  0  0  0  0  0  0  0
    5.6918    0.6546    0.0000 C   0  0  0  0  0  0  0  0  0  0  0  0
    7.4517    0.6200    0.0000 C   0  0  0  0  0  0  0  0  0  0  0  0
    5.6918    2.6546    0.0000 C   0  0  0  0  0  0  0  0  0  0  0  0
    7.4517    2.6893    0.0000 C   0  0  0  0  0  0  0  0  0  0  0  0
    4.8258    1.1546    0.0000 C   0  0  0  0  0  0  0  0  0  0  0  0
    8.3578    1.1338    0.0000 C   0  0  0  0  0  0  0  0  0  0  0  0
    4.8258    2.1546    0.0000 C   0  0  0  0  0  0  0  0  0  0  0  0
    8.3578    2.1754    0.0000 C   0  0  0  0  0  0  0  0  0  0  0  0
    6.5914    7.9491    0.0000 C   0  0  0  0  0  0  0  0  0  0  0  0
    5.7254    7.4491    0.0000 C   0  0  0  0  0  0  0  0  0  0  0  0
    7.4574    7.4491    0.0000 C   0  0  0  0  0  0  0  0  0  0  0  0
    5.7254    6.4491    0.0000 C   0  0  0  0  0  0  0  0  0  0  0  0
    7.4574    6.4491    0.0000 C   0  0  0  0  0  0  0  0  0  0  0  0
    6.5914    5.9491    0.0000 C   0  0  0  0  0  0  0  0  0  0  0  0
    0.8660    4.5695    0.0000 C   0  0  0  0  0  0  0  0  0  0  0  0
    5.6918    0.0346    0.0000 H   0  0  0  0  0  0  0  0  0  0  0  0
    7.4446    0.0000    0.0000 H   0  0  0  0  0  0  0  0  0  0  0  0
    5.6918    3.2746    0.0000 H   0  0  0  0  0  0  0  0  0  0  0  0
    7.4446    3.3092    0.0000 H   0  0  0  0  0  0  0  0  0  0  0  0
    4.2888    2.4646    0.0000 H   0  0  0  0  0  0  0  0  0  0  0  0
    8.8935    2.4875    0.0000 H   0  0  0  0  0  0  0  0  0  0  0  0
    3.4228    0.9646    0.0000 H   0  0  0  0  0  0  0  0  0  0  0  0
    9.7600    0.9384    0.0000 H   0  0  0  0  0  0  0  0  0  0  0  0
    5.1884    7.7591    0.0000 H   0  0  0  0  0  0  0  0  0  0  0  0
    7.9944    7.7591    0.0000 H   0  0  0  0  0  0  0  0  0  0  0  0
    5.1884    6.1391    0.0000 H   0  0  0  0  0  0  0  0  0  0  0  0
    7.9944    6.1391    0.0000 H   0  0  0  0  0  0  0  0  0  0  0  0
    6.5914    5.3291    0.0000 H   0  0  0  0  0  0  0  0  0  0  0  0
    7.1283    9.2591    0.0000 H   0  0  0  0  0  0  0  0  0  0  0  0
    1.4030    4.2595    0.0000 H   0  0  0  0  0  0  0  0  0  0  0  0
    0.8660    5.1895    0.0000 H   0  0  0  0  0  0  0  0  0  0  0  0
  1 11  1  0  0  0  0
  1 28  1  0  0  0  0
  2 12  1  0  0  0  0
  2 29  1  0  0  0  0
  3 15  1  0  0  0  0
  3 35  1  0  0  0  0
  4 21  2  0  0  0  0
  5  6  2  0  0  0  0
  5  7  1  0  0  0  0
  5  8  1  0  0  0  0
  6  9  1  0  0  0  0
  6 10  1  0  0  0  0
  7 11  2  0  0  0  0
  7 22  1  0  0  0  0
  8 12  2  0  0  0  0
  8 23  1  0  0  0  0
  9 13  2  0  0  0  0
  9 24  1  0  0  0  0
 10 14  2  0  0  0  0
 10 25  1  0  0  0  0
 11 13  1  0  0  0  0
 12 14  1  0  0  0  0
 13 26  1  0  0  0  0
 14 27  1  0  0  0  0
 15 16  2  0  0  0  0
 15 17  1  0  0  0  0
 16 18  1  0  0  0  0
 16 30  1  0  0  0  0
 17 19  2  0  0  0  0
 17 31  1  0  0  0  0
 18 20  2  0  0  0  0
 18 32  1  0  0  0  0
 19 20  1  0  0  0  0
 19 33  1  0  0  0  0
 20 34  1  0  0  0  0
 21 36  1  0  0  0  0
 21 37  1  0  0  0  0
M  END
> <PUBCHEM_COMPOUND_CID>
213708

> <PUBCHEM_COMPOUND_CANONICALIZED>
1

> <PUBCHEM_CACTVS_COMPLEXITY>
190

> <PUBCHEM_CACTVS_HBOND_ACCEPTOR>
4

> <PUBCHEM_CACTVS_HBOND_DONOR>
3

> <PUBCHEM_CACTVS_ROTATABLE_BOND>
0

> <PUBCHEM_CACTVS_SUBSKEYS>
AAADceB4OAAAAAAAAAAAAAAAAAAAAAAAAAAwYMAAAAAAAADBVAAAGgAACAAADASAmAIwBsAAAgCIAiBCgAACAAAgIAAIiAAGCIgIJiKCERKAcAAkwBEImAeA4LQOoAABAAAQAABAAAIAACAAAAAAAAAAAA==

> <PUBCHEM_IUPAC_OPENEYE_NAME>
formaldehyde;naphthalene-2,7-diol;phenol

> <PUBCHEM_IUPAC_CAS_NAME>
formaldehyde;naphthalene-2,7-diol;phenol

> <PUBCHEM_IUPAC_NAME_MARKUP>
formaldehyde;naphthalene-2,7-diol;phenol

> <PUBCHEM_IUPAC_NAME>
formaldehyde;naphthalene-2,7-diol;phenol

> <PUBCHEM_IUPAC_SYSTEMATIC_NAME>
methanal;naphthalene-2,7-diol;phenol

> <PUBCHEM_IUPAC_TRADITIONAL_NAME>
formaldehyde;naphthalene-2,7-diol;phenol

> <PUBCHEM_IUPAC_INCHI>
InChI=1S/C10H8O2.C6H6O.CH2O/c11-9-3-1-7-2-4-10(12)6-8(7)5-9;7-6-4-2-1-3-5-6;1-2/h1-6,11-12H;1-5,7H;1H2

> <PUBCHEM_IUPAC_INCHIKEY>
OIFBPXGKKWMHRN-UHFFFAOYSA-N

> <PUBCHEM_EXACT_MASS>
284.104859

> <PUBCHEM_MOLECULAR_FORMULA>
C17H16O4

> <PUBCHEM_MOLECULAR_WEIGHT>
284.31

> <PUBCHEM_OPENEYE_CAN_SMILES>
C=O.C1=CC=C(C=C1)O.C1=CC(=CC2=C1C=CC(=C2)O)O

> <PUBCHEM_OPENEYE_ISO_SMILES>
C=O.C1=CC=C(C=C1)O.C1=CC(=CC2=C1C=CC(=C2)O)O

> <PUBCHEM_CACTVS_TPSA>
77.8

> <PUBCHEM_MONOISOTOPIC_WEIGHT>
284.104859

> <PUBCHEM_TOTAL_CHARGE>
0

> <PUBCHEM_HEAVY_ATOM_COUNT>
21

> <PUBCHEM_ATOM_DEF_STEREO_COUNT>
0

> <PUBCHEM_ATOM_UDEF_STEREO_COUNT>
0

> <PUBCHEM_BOND_DEF_STEREO_COUNT>
0

> <PUBCHEM_BOND_UDEF_STEREO_COUNT>
0

> <PUBCHEM_ISOTOPIC_ATOM_COUNT>
0

> <PUBCHEM_COMPONENT_COUNT>
3

> <PUBCHEM_CACTVS_TAUTO_COUNT>
-1

> <PUBCHEM_COORDINATE_TYPE>
1
5
255

> <PUBCHEM_BONDANNOTATIONS>
10  14  8
11  13  8
12  14  8
15  16  8
15  17  8
16  18  8
17  19  8
18  20  8
19  20  8
5  6  8
5  7  8
5  8  8
6  10  8
6  9  8
7  11  8
8  12  8
9  13  8

$$$$
197176
  -OEChem-04052116542D

 39 40  0     0  0  0  0  0  0999 V2000
    6.9888    3.6200    0.0000 O   0  0  0  0  0  0  0  0  0  0  0  0
    6.2874    5.9149    0.0000 O   0  0  0  0  0  0  0  0  0  0  0  0
    2.1543    4.9163    0.0000 N   0  0  0  0  0  0  0  0  0  0  0  0
    2.9904    3.4680    0.0000 N   0  0  0  0  0  0  0  0  0  0  0  0
    1.3180    3.4680    0.0000 N   0  0  0  0  0  0  0  0  0  0  0  0
    1.4632    3.0328    0.0000 N   0  0  0  0  0  0  0  0  0  0  0  0
    2.9904    4.4335    0.0000 C   0  0  0  0  0  0  0  0  0  0  0  0
    1.3180    4.4335    0.0000 C   0  0  0  0  0  0  0  0  0  0  0  0
    1.4632    4.0782    0.0000 C   0  0  0  0  0  0  0  0  0  0  0  0
    2.1543    3.1652    0.0000 C   0  0  0  0  0  0  0  0  0  0  0  0
    2.3688    2.5560    0.0000 C   0  0  0  0  0  0  0  0  0  0  0  0
    0.4812    2.9852    0.0000 C   0  0  0  0  0  0  0  0  0  0  0  0
    6.9888    2.6200    0.0000 C   0  0  0  0  0  0  0  0  0  0  0  0
    6.1228    2.1200    0.0000 C   0  0  0  0  0  0  0  0  0  0  0  0
    7.8549    2.1200    0.0000 C   0  0  0  0  0  0  0  0  0  0  0  0
    6.1228    1.1200    0.0000 C   0  0  0  0  0  0  0  0  0  0  0  0
    7.8549    1.1200    0.0000 C   0  0  0  0  0  0  0  0  0  0  0  0
    6.9888    0.6200    0.0000 C   0  0  0  0  0  0  0  0  0  0  0  0
    7.1534    6.4149    0.0000 C   0  0  0  0  0  0  0  0  0  0  0  0
    3.6010    4.3258    0.0000 H   0  0  0  0  0  0  0  0  0  0  0  0
    3.2025    5.0161    0.0000 H   0  0  0  0  0  0  0  0  0  0  0  0
    1.1060    5.0161    0.0000 H   0  0  0  0  0  0  0  0  0  0  0  0
    0.7075    4.3258    0.0000 H   0  0  0  0  0  0  0  0  0  0  0  0
    1.1195    4.5942    0.0000 H   0  0  0  0  0  0  0  0  0  0  0  0
    0.8697    3.8986    0.0000 H   0  0  0  0  0  0  0  0  0  0  0  0
    1.7843    2.6676    0.0000 H   0  0  0  0  0  0  0  0  0  0  0  0
    2.5242    2.6676    0.0000 H   0  0  0  0  0  0  0  0  0  0  0  0
    2.0594    2.0188    0.0000 H   0  0  0  0  0  0  0  0  0  0  0  0
    2.8940    2.2265    0.0000 H   0  0  0  0  0  0  0  0  0  0  0  0
    0.0000    3.3761    0.0000 H   0  0  0  0  0  0  0  0  0  0  0  0
    0.2881    2.3960    0.0000 H   0  0  0  0  0  0  0  0  0  0  0  0
    5.5859    2.4300    0.0000 H   0  0  0  0  0  0  0  0  0  0  0  0
    8.3918    2.4300    0.0000 H   0  0  0  0  0  0  0  0  0  0  0  0
    5.5859    0.8100    0.0000 H   0  0  0  0  0  0  0  0  0  0  0  0
    8.3918    0.8100    0.0000 H   0  0  0  0  0  0  0  0  0  0  0  0
    6.9888    0.0000    0.0000 H   0  0  0  0  0  0  0  0  0  0  0  0
    7.5258    3.9300    0.0000 H   0  0  0  0  0  0  0  0  0  0  0  0
    7.6903    6.1049    0.0000 H   0  0  0  0  0  0  0  0  0  0  0  0
    7.1534    7.0349    0.0000 H   0  0  0  0  0  0  0  0  0  0  0  0
  1 13  1  0  0  0  0
  1 37  1  0  0  0  0
  2 19  2  0  0  0  0
  3  7  1  0  0  0  0
  3  8  1  0  0  0  0
  3  9  1  0  0  0  0
  4  7  1  0  0  0  0
  4 10  1  0  0  0  0
  4 11  1  0  0  0  0
  5  8  1  0  0  0  0
  5 10  1  0  0  0  0
  5 12  1  0  0  0  0
  6  9  1  0  0  0  0
  6 11  1  0  0  0  0
  6 12  1  0  0  0  0
  7 20  1  0  0  0  0
  7 21  1  0  0  0  0
  8 22  1  0  0  0  0
  8 23  1  0  0  0  0
  9 24  1  0  0  0  0
  9 25  1  0  0  0  0
 10 26  1  0  0  0  0
 10 27  1  0  0  0  0
 11 28  1  0  0  0  0
 11 29  1  0  0  0  0
 12 30  1  0  0  0  0
 12 31  1  0  0  0  0
 13 14  2  0  0  0  0
 13 15  1  0  0  0  0
 14 16  1  0  0  0  0
 14 32  1  0  0  0  0
 15 17  2  0  0  0  0
 15 33  1  0  0  0  0
 16 18  2  0  0  0  0
 16 34  1  0  0  0  0
 17 18  1  0  0  0  0
 17 35  1  0  0  0  0
 18 36  1  0  0  0  0
 19 38  1  0  0  0  0
 19 39  1  0  0  0  0
M  END
> <PUBCHEM_COMPOUND_CID>
197176

> <PUBCHEM_COMPOUND_CANONICALIZED>
1

> <PUBCHEM_CACTVS_COMPLEXITY>
133

> <PUBCHEM_CACTVS_HBOND_ACCEPTOR>
6

> <PUBCHEM_CACTVS_HBOND_DONOR>
1

> <PUBCHEM_CACTVS_ROTATABLE_BOND>
0

> <PUBCHEM_CACTVS_SUBSKEYS>
AAADceBzsAAAAAAAAAAAAAAAAAAAAAAAAAA8WLFiAAAAAAABAAAAHgAACAAACASAkAYxBoMAAgCIACBCgAACAAAgIAAIiAAOCIiIJiKCERKAcAAswBEImAeAQAAAAAAAAAAAAAAAAAAAAAAAAAAAAAAAAA==

> <PUBCHEM_IUPAC_OPENEYE_NAME>
formaldehyde;phenol;1,3,5,7-tetrazatricyclo[3.3.1.13,7]decane

> <PUBCHEM_IUPAC_CAS_NAME>
formaldehyde;phenol;1,3,5,7-tetrazatricyclo[3.3.1.13,7]decane

> <PUBCHEM_IUPAC_NAME_MARKUP>
formaldehyde;phenol;1,3,5,7-tetrazatricyclo[3.3.1.1<SUP>3,7</SUP>]decane

> <PUBCHEM_IUPAC_NAME>
formaldehyde;phenol;1,3,5,7-tetrazatricyclo[3.3.1.13,7]decane

> <PUBCHEM_IUPAC_SYSTEMATIC_NAME>
methanal;phenol;1,3,5,7-tetrazatricyclo[3.3.1.13,7]decane

> <PUBCHEM_IUPAC_TRADITIONAL_NAME>
formaldehyde;phenol;1,3,5,7-tetrazatricyclo[3.3.1.13,7]decane

> <PUBCHEM_IUPAC_INCHI>
InChI=1S/C6H12N4.C6H6O.CH2O/c1-7-2-9-4-8(1)5-10(3-7)6-9;7-6-4-2-1-3-5-6;1-2/h1-6H2;1-5,7H;1H2

> <PUBCHEM_IUPAC_INCHIKEY>
NNMIKCDMTMJXQX-UHFFFAOYSA-N

> <PUBCHEM_EXACT_MASS>
264.158626

> <PUBCHEM_MOLECULAR_FORMULA>
C13H20N4O2

> <PUBCHEM_MOLECULAR_WEIGHT>
264.32

> <PUBCHEM_OPENEYE_CAN_SMILES>
C=O.C1N2CN3CN1CN(C2)C3.C1=CC=C(C=C1)O

> <PUBCHEM_OPENEYE_ISO_SMILES>
C=O.C1N2CN3CN1CN(C2)C3.C1=CC=C(C=C1)O

> <PUBCHEM_CACTVS_TPSA>
50.3

> <PUBCHEM_MONOISOTOPIC_WEIGHT>
264.158626

> <PUBCHEM_TOTAL_CHARGE>
0

> <PUBCHEM_HEAVY_ATOM_COUNT>
19

> <PUBCHEM_ATOM_DEF_STEREO_COUNT>
0

> <PUBCHEM_ATOM_UDEF_STEREO_COUNT>
0

> <PUBCHEM_BOND_DEF_STEREO_COUNT>
0

> <PUBCHEM_BOND_UDEF_STEREO_COUNT>
0

> <PUBCHEM_ISOTOPIC_ATOM_COUNT>
0

> <PUBCHEM_COMPONENT_COUNT>
3

> <PUBCHEM_CACTVS_TAUTO_COUNT>
-1

> <PUBCHEM_COORDINATE_TYPE>
1
5
255

> <PUBCHEM_BONDANNOTATIONS>
13  14  8
13  15  8
14  16  8
15  17  8
16  18  8
17  18  8

$$$$
152424
  -OEChem-04052116542D

 55 57  0     1  0  0  0  0  0999 V2000
    8.5991   -1.7500    0.0000 I   0  0  0  0  0  0  0  0  0  0  0  0
    5.1350   -1.7500    0.0000 I   0  0  0  0  0  0  0  0  0  0  0  0
    8.5991    0.2500    0.0000 I   0  0  0  0  0  0  0  0  0  0  0  0
    6.8671    3.2500    0.0000 I   0  0  0  0  0  0  0  0  0  0  0  0
    5.1350   -2.7500    0.0000 O   0  0  0  0  0  0  0  0  0  0  0  0
    5.1350   -5.7500    0.0000 O   0  0  0  0  0  0  0  0  0  0  0  0
    6.8671   -2.7500    0.0000 O   0  0  0  0  0  0  0  0  0  0  0  0
    3.4030   -4.7500    0.0000 O   0  0  0  0  0  0  0  0  0  0  0  0
    6.8671   -4.7500    0.0000 O   0  0  0  0  0  0  0  0  0  0  0  0
    2.5369   -3.2500    0.0000 O   0  0  0  0  0  0  0  0  0  0  0  0
    3.4030   -1.7500    0.0000 O   0  0  0  0  0  0  0  0  0  0  0  0
    6.8671    1.2500    0.0000 O   0  0  0  0  0  0  0  0  0  0  0  0
   11.1972    5.7500    0.0000 O   0  0  0  0  0  0  0  0  0  0  0  0
   12.0632    4.2500    0.0000 O   0  0  0  0  0  0  0  0  0  0  0  0
    9.4651    4.7500    0.0000 N   0  0  0  0  0  0  0  0  0  0  0  0
    5.1350   -4.7500    0.0000 C   0  0  1  0  0  0  0  0  0  0  0  0
    4.2690   -4.2500    0.0000 C   0  0  1  0  0  0  0  0  0  0  0  0
    6.0010   -4.2500    0.0000 C   0  0  2  0  0  0  0  0  0  0  0  0
    4.2690   -3.2500    0.0000 C   0  0  1  0  0  0  0  0  0  0  0  0
    6.0010   -3.2500    0.0000 C   0  0  3  0  0  0  0  0  0  0  0  0
    3.4030   -2.7500    0.0000 C   0  0  0  0  0  0  0  0  0  0  0  0
    6.8671   -1.7500    0.0000 C   0  0  0  0  0  0  0  0  0  0  0  0
    7.7331   -1.2500    0.0000 C   0  0  0  0  0  0  0  0  0  0  0  0
    6.0010   -1.2500    0.0000 C   0  0  0  0  0  0  0  0  0  0  0  0
    7.7331   -0.2500    0.0000 C   0  0  0  0  0  0  0  0  0  0  0  0
    6.0010   -0.2500    0.0000 C   0  0  0  0  0  0  0  0  0  0  0  0
    6.8671    0.2500    0.0000 C   0  0  0  0  0  0  0  0  0  0  0  0
   10.3312    3.2500    0.0000 C   0  0  0  0  0  0  0  0  0  0  0  0
    9.4651    2.7500    0.0000 C   0  0  0  0  0  0  0  0  0  0  0  0
   10.3312    4.2500    0.0000 C   0  0  1  0  0  0  0  0  0  0  0  0
    7.7331    1.7500    0.0000 C   0  0  0  0  0  0  0  0  0  0  0  0
    9.4651    1.7500    0.0000 C   0  0  0  0  0  0  0  0  0  0  0  0
    8.5991    3.2500    0.0000 C   0  0  0  0  0  0  0  0  0  0  0  0
    8.5991    1.2500    0.0000 C   0  0  0  0  0  0  0  0  0  0  0  0
    7.7331    2.7500    0.0000 C   0  0  0  0  0  0  0  0  0  0  0  0
   11.1972    4.7500    0.0000 C   0  0  0  0  0  0  0  0  0  0  0  0
    4.5981   -5.0600    0.0000 H   0  0  0  0  0  0  0  0  0  0  0  0
    3.7320   -3.9400    0.0000 H   0  0  0  0  0  0  0  0  0  0  0  0
    6.0010   -4.8700    0.0000 H   0  0  0  0  0  0  0  0  0  0  0  0
    4.2690   -2.6300    0.0000 H   0  0  0  0  0  0  0  0  0  0  0  0
    6.0010   -2.6300    0.0000 H   0  0  0  0  0  0  0  0  0  0  0  0
    5.6720   -6.0600    0.0000 H   0  0  0  0  0  0  0  0  0  0  0  0
    3.4030   -5.3700    0.0000 H   0  0  0  0  0  0  0  0  0  0  0  0
    7.4040   -4.4400    0.0000 H   0  0  0  0  0  0  0  0  0  0  0  0
    2.0000   -2.9400    0.0000 H   0  0  0  0  0  0  0  0  0  0  0  0
    8.2700    0.0600    0.0000 H   0  0  0  0  0  0  0  0  0  0  0  0
    5.4641    0.0600    0.0000 H   0  0  0  0  0  0  0  0  0  0  0  0
   10.5432    2.6674    0.0000 H   0  0  0  0  0  0  0  0  0  0  0  0
   10.9417    3.3577    0.0000 H   0  0  0  0  0  0  0  0  0  0  0  0
    9.7942    3.9400    0.0000 H   0  0  0  0  0  0  0  0  0  0  0  0
   10.0021    1.4400    0.0000 H   0  0  0  0  0  0  0  0  0  0  0  0
    8.5991    3.8700    0.0000 H   0  0  0  0  0  0  0  0  0  0  0  0
    9.4651    5.3700    0.0000 H   0  0  0  0  0  0  0  0  0  0  0  0
    8.9282    4.4400    0.0000 H   0  0  0  0  0  0  0  0  0  0  0  0
   11.7341    6.0600    0.0000 H   0  0  0  0  0  0  0  0  0  0  0  0
  1 23  1  0  0  0  0
  2 24  1  0  0  0  0
  3 34  1  0  0  0  0
  4 35  1  0  0  0  0
  5 19  1  0  0  0  0
  5 20  1  0  0  0  0
 16  6  1  1  0  0  0
  6 42  1  0  0  0  0
  7 20  1  0  0  0  0
  7 22  1  0  0  0  0
 17  8  1  6  0  0  0
  8 43  1  0  0  0  0
 18  9  1  6  0  0  0
  9 44  1  0  0  0  0
 10 21  1  0  0  0  0
 10 45  1  0  0  0  0
 11 21  2  0  0  0  0
 12 27  1  0  0  0  0
 12 31  1  0  0  0  0
 13 36  1  0  0  0  0
 13 55  1  0  0  0  0
 14 36  2  0  0  0  0
 30 15  1  6  0  0  0
 15 53  1  0  0  0  0
 15 54  1  0  0  0  0
 16 17  1  0  0  0  0
 16 18  1  0  0  0  0
 16 37  1  0  0  0  0
 17 19  1  0  0  0  0
 17 38  1  0  0  0  0
 18 20  1  0  0  0  0
 18 39  1  0  0  0  0
 19 21  1  1  0  0  0
 19 40  1  0  0  0  0
 20 41  1  0  0  0  0
 22 23  2  0  0  0  0
 22 24  1  0  0  0  0
 23 25  1  0  0  0  0
 24 26  2  0  0  0  0
 25 27  2  0  0  0  0
 25 46  1  0  0  0  0
 26 27  1  0  0  0  0
 26 47  1  0  0  0  0
 28 29  1  0  0  0  0
 28 30  1  0  0  0  0
 28 48  1  0  0  0  0
 28 49  1  0  0  0  0
 29 32  2  0  0  0  0
 29 33  1  0  0  0  0
 30 36  1  0  0  0  0
 30 50  1  0  0  0  0
 31 34  2  0  0  0  0
 31 35  1  0  0  0  0
 32 34  1  0  0  0  0
 32 51  1  0  0  0  0
 33 35  2  0  0  0  0
 33 52  1  0  0  0  0
M  END
> <PUBCHEM_COMPOUND_CID>
152424

> <PUBCHEM_COMPOUND_CANONICALIZED>
1

> <PUBCHEM_CACTVS_COMPLEXITY>
759

> <PUBCHEM_CACTVS_HBOND_ACCEPTOR>
11

> <PUBCHEM_CACTVS_HBOND_DONOR>
6

> <PUBCHEM_CACTVS_ROTATABLE_BOND>
8

> <PUBCHEM_CACTVS_SUBSKEYS>
AAADceB6PAAAA4AAAAAAAAAAAAAAAAAAAAA0YIAAAAAAAAABQAAAHgAwCAAADDzzmAcwDoBABgCIAiDSCAICCAAgIAAAiIHGCIgfNjaEsR+ieCCl8BEPqAfa7KzOIQAAAAAAAABCAAAAAAAAAAAAAAAAAA==

> <PUBCHEM_IUPAC_OPENEYE_NAME>
(2S,3S,4S,5R)-6-[4-[4-[(2S)-2-amino-2-carboxy-ethyl]-2,6-diiodo-phenoxy]-2,6-diiodo-phenoxy]-3,4,5-trihydroxy-tetrahydropyran-2-carboxylic acid

> <PUBCHEM_IUPAC_CAS_NAME>
(2S,3S,4S,5R)-6-[4-[4-[(2S)-2-amino-2-carboxyethyl]-2,6-diiodophenoxy]-2,6-diiodophenoxy]-3,4,5-trihydroxy-2-oxanecarboxylic acid

> <PUBCHEM_IUPAC_NAME_MARKUP>
(2<I>S</I>,3<I>S</I>,4<I>S</I>,5<I>R</I>)-6-[4-[4-[(2<I>S</I>)-2-amino-2-carboxyethyl]-2,6-diiodophenoxy]-2,6-diiodophenoxy]-3,4,5-trihydroxyoxane-2-carboxylic acid

> <PUBCHEM_IUPAC_NAME>
(2S,3S,4S,5R)-6-[4-[4-[(2S)-2-amino-2-carboxyethyl]-2,6-diiodophenoxy]-2,6-diiodophenoxy]-3,4,5-trihydroxyoxane-2-carboxylic acid

> <PUBCHEM_IUPAC_SYSTEMATIC_NAME>
(2S,3S,4S,5R)-6-[4-[4-[(2S)-2-azanyl-3-oxidanyl-3-oxidanylidene-propyl]-2,6-bis(iodanyl)phenoxy]-2,6-bis(iodanyl)phenoxy]-3,4,5-tris(oxidanyl)oxane-2-carboxylic acid

> <PUBCHEM_IUPAC_TRADITIONAL_NAME>
(2S,3S,4S,5R)-6-[4-[4-[(2S)-2-amino-2-carboxy-ethyl]-2,6-diiodo-phenoxy]-2,6-diiodo-phenoxy]-3,4,5-trihydroxy-tetrahydropyran-2-carboxylic acid

> <PUBCHEM_IUPAC_INCHI>
InChI=1S/C21H19I4NO10/c22-8-1-6(3-12(26)19(30)31)2-9(23)16(8)34-7-4-10(24)17(11(25)5-7)35-21-15(29)13(27)14(28)18(36-21)20(32)33/h1-2,4-5,12-15,18,21,27-29H,3,26H2,(H,30,31)(H,32,33)/t12-,13-,14-,15+,18-,21?/m0/s1

> <PUBCHEM_IUPAC_INCHIKEY>
RGHRJBIKIYUHEV-SGPDEFQSSA-N

> <PUBCHEM_XLOGP3_AA>
0.8

> <PUBCHEM_EXACT_MASS>
952.7188

> <PUBCHEM_MOLECULAR_FORMULA>
C21H19I4NO10

> <PUBCHEM_MOLECULAR_WEIGHT>
953

> <PUBCHEM_OPENEYE_CAN_SMILES>
C1=C(C=C(C(=C1I)OC2=CC(=C(C(=C2)I)OC3C(C(C(C(O3)C(=O)O)O)O)O)I)I)CC(C(=O)O)N

> <PUBCHEM_OPENEYE_ISO_SMILES>
C1=C(C=C(C(=C1I)OC2=CC(=C(C(=C2)I)OC3[C@@H]([C@H]([C@@H]([C@H](O3)C(=O)O)O)O)O)I)I)C[C@@H](C(=O)O)N

> <PUBCHEM_CACTVS_TPSA>
189

> <PUBCHEM_MONOISOTOPIC_WEIGHT>
952.7188

> <PUBCHEM_TOTAL_CHARGE>
0

> <PUBCHEM_HEAVY_ATOM_COUNT>
36

> <PUBCHEM_ATOM_DEF_STEREO_COUNT>
5

> <PUBCHEM_ATOM_UDEF_STEREO_COUNT>
1

> <PUBCHEM_BOND_DEF_STEREO_COUNT>
0

> <PUBCHEM_BOND_UDEF_STEREO_COUNT>
0

> <PUBCHEM_ISOTOPIC_ATOM_COUNT>
0

> <PUBCHEM_COMPONENT_COUNT>
1

> <PUBCHEM_CACTVS_TAUTO_COUNT>
-1

> <PUBCHEM_COORDINATE_TYPE>
1
5
255

> <PUBCHEM_BONDANNOTATIONS>
30  15  6
19  21  5
22  23  8
22  24  8
23  25  8
24  26  8
25  27  8
26  27  8
29  32  8
29  33  8
31  34  8
31  35  8
32  34  8
33  35  8
16  6  5
20  7  3
17  8  6
18  9  6

$$$$
124049
  -OEChem-04052116542D

 44 46  0     1  0  0  0  0  0999 V2000
    6.0290   -0.1897    0.0000 O   0  0  0  0  0  0  0  0  0  0  0  0
    6.0174    2.8796    0.0000 O   0  0  0  0  0  0  0  0  0  0  0  0
    4.2690    2.8450    0.0000 O   0  0  0  0  0  0  0  0  0  0  0  0
    2.5369   -0.1550    0.0000 O   0  0  0  0  0  0  0  0  0  0  0  0
    6.9350    0.3242    0.0000 C   0  0  1  0  0  0  0  0  0  0  0  0
    6.9350    1.3658    0.0000 C   0  0  0  0  0  0  0  0  0  0  0  0
    5.1350    0.3450    0.0000 C   0  0  0  0  0  0  0  0  0  0  0  0
    5.1350    1.3450    0.0000 C   0  0  0  0  0  0  0  0  0  0  0  0
    4.2690   -0.1550    0.0000 C   0  0  0  0  0  0  0  0  0  0  0  0
    6.0290    1.8797    0.0000 C   0  0  0  0  0  0  0  0  0  0  0  0
    7.7991   -0.1792    0.0000 C   0  0  0  0  0  0  0  0  0  0  0  0
    4.2690   -1.1550    0.0000 C   0  0  0  0  0  0  0  0  0  0  0  0
    4.2690    1.8450    0.0000 C   0  0  0  0  0  0  0  0  0  0  0  0
    3.4030    0.3450    0.0000 C   0  0  0  0  0  0  0  0  0  0  0  0
    3.4030    1.3450    0.0000 C   0  0  0  0  0  0  0  0  0  0  0  0
    7.7953   -1.1791    0.0000 C   0  0  0  0  0  0  0  0  0  0  0  0
    8.6671    0.3175    0.0000 C   0  0  0  0  0  0  0  0  0  0  0  0
    3.4030   -1.6550    0.0000 C   0  0  0  0  0  0  0  0  0  0  0  0
    8.6594   -1.6825    0.0000 C   0  0  0  0  0  0  0  0  0  0  0  0
    9.5312   -0.1858    0.0000 C   0  0  0  0  0  0  0  0  0  0  0  0
    3.4030   -2.6550    0.0000 C   0  0  0  0  0  0  0  0  0  0  0  0
    9.5273   -1.1858    0.0000 C   0  0  0  0  0  0  0  0  0  0  0  0
    2.5369   -3.1550    0.0000 C   0  0  0  0  0  0  0  0  0  0  0  0
    4.2690   -3.1550    0.0000 C   0  0  0  0  0  0  0  0  0  0  0  0
    7.4726    0.6331    0.0000 H   0  0  0  0  0  0  0  0  0  0  0  0
    7.5459    1.2597    0.0000 H   0  0  0  0  0  0  0  0  0  0  0  0
    7.1441    1.9495    0.0000 H   0  0  0  0  0  0  0  0  0  0  0  0
    4.4810   -1.7376    0.0000 H   0  0  0  0  0  0  0  0  0  0  0  0
    4.8796   -1.0473    0.0000 H   0  0  0  0  0  0  0  0  0  0  0  0
    2.8660    1.6550    0.0000 H   0  0  0  0  0  0  0  0  0  0  0  0
    7.2571   -1.4871    0.0000 H   0  0  0  0  0  0  0  0  0  0  0  0
    8.6694    0.9375    0.0000 H   0  0  0  0  0  0  0  0  0  0  0  0
    2.8660   -1.3450    0.0000 H   0  0  0  0  0  0  0  0  0  0  0  0
    8.6570   -2.3025    0.0000 H   0  0  0  0  0  0  0  0  0  0  0  0
   10.0693    0.1221    0.0000 H   0  0  0  0  0  0  0  0  0  0  0  0
   10.0630   -1.4979    0.0000 H   0  0  0  0  0  0  0  0  0  0  0  0
    3.7320    3.1550    0.0000 H   0  0  0  0  0  0  0  0  0  0  0  0
    2.0000    0.1550    0.0000 H   0  0  0  0  0  0  0  0  0  0  0  0
    2.2269   -2.6181    0.0000 H   0  0  0  0  0  0  0  0  0  0  0  0
    2.0000   -3.4650    0.0000 H   0  0  0  0  0  0  0  0  0  0  0  0
    2.8469   -3.6919    0.0000 H   0  0  0  0  0  0  0  0  0  0  0  0
    3.9590   -3.6919    0.0000 H   0  0  0  0  0  0  0  0  0  0  0  0
    4.8059   -3.4650    0.0000 H   0  0  0  0  0  0  0  0  0  0  0  0
    4.5790   -2.6181    0.0000 H   0  0  0  0  0  0  0  0  0  0  0  0
  1  5  1  0  0  0  0
  1  7  1  0  0  0  0
  2 10  2  0  0  0  0
  3 13  1  0  0  0  0
  3 37  1  0  0  0  0
  4 14  1  0  0  0  0
  4 38  1  0  0  0  0
  5  6  1  0  0  0  0
  5 11  1  1  0  0  0
  5 25  1  0  0  0  0
  6 10  1  0  0  0  0
  6 26  1  0  0  0  0
  6 27  1  0  0  0  0
  7  8  1  0  0  0  0
  7  9  2  0  0  0  0
  8 10  1  0  0  0  0
  8 13  2  0  0  0  0
  9 12  1  0  0  0  0
  9 14  1  0  0  0  0
 11 16  2  0  0  0  0
 11 17  1  0  0  0  0
 12 18  1  0  0  0  0
 12 28  1  0  0  0  0
 12 29  1  0  0  0  0
 13 15  1  0  0  0  0
 14 15  2  0  0  0  0
 15 30  1  0  0  0  0
 16 19  1  0  0  0  0
 16 31  1  0  0  0  0
 17 20  2  0  0  0  0
 17 32  1  0  0  0  0
 18 21  2  0  0  0  0
 18 33  1  0  0  0  0
 19 22  2  0  0  0  0
 19 34  1  0  0  0  0
 20 22  1  0  0  0  0
 20 35  1  0  0  0  0
 21 23  1  0  0  0  0
 21 24  1  0  0  0  0
 22 36  1  0  0  0  0
 23 39  1  0  0  0  0
 23 40  1  0  0  0  0
 23 41  1  0  0  0  0
 24 42  1  0  0  0  0
 24 43  1  0  0  0  0
 24 44  1  0  0  0  0
M  END
> <PUBCHEM_COMPOUND_CID>
124049

> <PUBCHEM_COMPOUND_CANONICALIZED>
1

> <PUBCHEM_CACTVS_COMPLEXITY>
476

> <PUBCHEM_CACTVS_HBOND_ACCEPTOR>
4

> <PUBCHEM_CACTVS_HBOND_DONOR>
2

> <PUBCHEM_CACTVS_ROTATABLE_BOND>
3

> <PUBCHEM_CACTVS_SUBSKEYS>
AAADceB4OAAAAAAAAAAAAAAAAAAAAAAAAAA0YIAAAAAAAACRQAAAGgAACAAADBSgmAIyBoAABgCIAqBSAAACCAAkIAAIiAEGCMgMJzaGNRqCeWCl4BUIuQeI7OzOIAACCAAIAABAAAQQABAAAAAAAAAAAA==

> <PUBCHEM_IUPAC_OPENEYE_NAME>
(2S)-5,7-dihydroxy-8-(3-methylbut-2-enyl)-2-phenyl-chroman-4-one

> <PUBCHEM_IUPAC_CAS_NAME>
(2S)-5,7-dihydroxy-8-(3-methylbut-2-enyl)-2-phenyl-3,4-dihydro-2H-1-benzopyran-4-one

> <PUBCHEM_IUPAC_NAME_MARKUP>
(2<I>S</I>)-5,7-dihydroxy-8-(3-methylbut-2-enyl)-2-phenyl-2,3-dihydrochromen-4-one

> <PUBCHEM_IUPAC_NAME>
(2S)-5,7-dihydroxy-8-(3-methylbut-2-enyl)-2-phenyl-2,3-dihydrochromen-4-one

> <PUBCHEM_IUPAC_SYSTEMATIC_NAME>
(2S)-8-(3-methylbut-2-enyl)-5,7-bis(oxidanyl)-2-phenyl-2,3-dihydrochromen-4-one

> <PUBCHEM_IUPAC_TRADITIONAL_NAME>
(2S)-5,7-dihydroxy-8-(3-methylbut-2-enyl)-2-phenyl-chroman-4-one

> <PUBCHEM_IUPAC_INCHI>
InChI=1S/C20H20O4/c1-12(2)8-9-14-15(21)10-16(22)19-17(23)11-18(24-20(14)19)13-6-4-3-5-7-13/h3-8,10,18,21-22H,9,11H2,1-2H3/t18-/m0/s1

> <PUBCHEM_IUPAC_INCHIKEY>
DAWSYIQAGQMLFS-SFHVURJKSA-N

> <PUBCHEM_XLOGP3_AA>
4.7

> <PUBCHEM_EXACT_MASS>
324.136159

> <PUBCHEM_MOLECULAR_FORMULA>
C20H20O4

> <PUBCHEM_MOLECULAR_WEIGHT>
324.4

> <PUBCHEM_OPENEYE_CAN_SMILES>
CC(=CCC1=C2C(=C(C=C1O)O)C(=O)CC(O2)C3=CC=CC=C3)C

> <PUBCHEM_OPENEYE_ISO_SMILES>
CC(=CCC1=C2C(=C(C=C1O)O)C(=O)C[C@H](O2)C3=CC=CC=C3)C

> <PUBCHEM_CACTVS_TPSA>
66.8

> <PUBCHEM_MONOISOTOPIC_WEIGHT>
324.136159

> <PUBCHEM_TOTAL_CHARGE>
0

> <PUBCHEM_HEAVY_ATOM_COUNT>
24

> <PUBCHEM_ATOM_DEF_STEREO_COUNT>
1

> <PUBCHEM_ATOM_UDEF_STEREO_COUNT>
0

> <PUBCHEM_BOND_DEF_STEREO_COUNT>
0

> <PUBCHEM_BOND_UDEF_STEREO_COUNT>
0

> <PUBCHEM_ISOTOPIC_ATOM_COUNT>
0

> <PUBCHEM_COMPONENT_COUNT>
1

> <PUBCHEM_CACTVS_TAUTO_COUNT>
-1

> <PUBCHEM_COORDINATE_TYPE>
1
5
255

> <PUBCHEM_BONDANNOTATIONS>
11  16  8
11  17  8
13  15  8
14  15  8
16  19  8
17  20  8
19  22  8
20  22  8
5  11  5
7  8  8
7  9  8
8  13  8
9  14  8

$$$$
73568
  -OEChem-04052116542D

 67 71  0     1  0  0  0  0  0999 V2000
    6.2828   -1.0477    0.0000 O   0  0  0  0  0  0  0  0  0  0  0  0
    8.6492   -0.0267    0.0000 O   0  0  0  0  0  0  0  0  0  0  0  0
    8.1832   -2.5657    0.0000 O   0  0  0  0  0  0  0  0  0  0  0  0
    8.5502    0.5211    0.0000 O   0  0  0  0  0  0  0  0  0  0  0  0
    5.8100   -0.1872    0.0000 O   0  0  0  0  0  0  0  0  0  0  0  0
    5.0443   -0.9926    0.0000 O   0  0  0  0  0  0  0  0  0  0  0  0
    9.2564    1.4393    0.0000 O   0  0  0  0  0  0  0  0  0  0  0  0
    4.3100   -1.0532    0.0000 O   0  0  0  0  0  0  0  0  0  0  0  0
    3.7855   -0.0267    0.0000 O   0  0  0  0  0  0  0  0  0  0  0  0
    5.5211    3.3192    0.0000 O   0  0  0  0  0  0  0  0  0  0  0  0
    6.0803    3.4690    0.0000 O   0  0  0  0  0  0  0  0  0  0  0  0
    8.8790    4.0840    0.0000 O   0  0  0  0  0  0  0  0  0  0  0  0
    6.9005    4.6142    0.0000 O   0  0  0  0  0  0  0  0  0  0  0  0
    4.2382    3.9008    0.0000 O   0  0  0  0  0  0  0  0  0  0  0  0
    2.7898    2.4524    0.0000 O   0  0  0  0  0  0  0  0  0  0  0  0
    2.3100   -2.7853    0.0000 O   0  0  0  0  0  0  0  0  0  0  0  0
    5.3100   -4.5173    0.0000 O   0  0  0  0  0  0  0  0  0  0  0  0
    3.3100   -4.5174    0.0000 O   0  0  0  0  0  0  0  0  0  0  0  0
    8.3903   -0.9926    0.0000 C   0  0  1  0  0  0  0  0  0  0  0  0
    7.6832   -1.6997    0.0000 C   0  0  1  0  0  0  0  0  0  0  0  0
    6.7173   -1.9585    0.0000 C   0  0  1  0  0  0  0  0  0  0  0  0
    7.8188   -0.1608    0.0000 C   0  0  2  0  0  0  0  0  0  0  0  0
    6.8100   -0.1872    0.0000 C   0  0  1  0  0  0  0  0  0  0  0  0
    5.7514   -1.6997    0.0000 C   0  0  0  0  0  0  0  0  0  0  0  0
    8.3903    0.9393    0.0000 C   0  0  0  0  0  0  0  0  0  0  0  0
    7.6832    1.6464    0.0000 C   0  0  0  0  0  0  0  0  0  0  0  0
    6.7173    1.9052    0.0000 C   0  0  0  0  0  0  0  0  0  0  0  0
    5.3100   -1.0532    0.0000 C   0  0  0  0  0  0  0  0  0  0  0  0
    4.7855   -0.0267    0.0000 C   0  0  0  0  0  0  0  0  0  0  0  0
    5.7514    1.6464    0.0000 C   0  0  0  0  0  0  0  0  0  0  0  0
    5.0443    0.9393    0.0000 C   0  0  0  0  0  0  0  0  0  0  0  0
    8.4311    2.3715    0.0000 C   0  0  0  0  0  0  0  0  0  0  0  0
    6.4322    2.9071    0.0000 C   0  0  0  0  0  0  0  0  0  0  0  0
    4.8101   -1.9193    0.0000 C   0  0  0  0  0  0  0  0  0  0  0  0
    5.4973    2.6566    0.0000 C   0  0  0  0  0  0  0  0  0  0  0  0
    4.0341    1.1933    0.0000 C   0  0  0  0  0  0  0  0  0  0  0  0
    8.1692    3.3797    0.0000 C   0  0  0  0  0  0  0  0  0  0  0  0
    7.1631    3.6493    0.0000 C   0  0  0  0  0  0  0  0  0  0  0  0
    4.4933    2.9339    0.0000 C   0  0  0  0  0  0  0  0  0  0  0  0
    3.7568    2.1974    0.0000 C   0  0  0  0  0  0  0  0  0  0  0  0
    5.3100   -2.7853    0.0000 C   0  0  0  0  0  0  0  0  0  0  0  0
    3.8100   -1.9192    0.0000 C   0  0  0  0  0  0  0  0  0  0  0  0
    3.3100   -2.7853    0.0000 C   0  0  0  0  0  0  0  0  0  0  0  0
    4.8100   -3.6513    0.0000 C   0  0  0  0  0  0  0  0  0  0  0  0
    3.8100   -3.6514    0.0000 C   0  0  0  0  0  0  0  0  0  0  0  0
    8.8717   -1.6931    0.0000 H   0  0  0  0  0  0  0  0  0  0  0  0
    8.2979   -1.7806    0.0000 H   0  0  0  0  0  0  0  0  0  0  0  0
    6.7173   -2.8085    0.0000 H   0  0  0  0  0  0  0  0  0  0  0  0
    7.5841    0.4130    0.0000 H   0  0  0  0  0  0  0  0  0  0  0  0
    6.8019    0.4327    0.0000 H   0  0  0  0  0  0  0  0  0  0  0  0
    5.1895   -1.9617    0.0000 H   0  0  0  0  0  0  0  0  0  0  0  0
    6.0614   -1.1628    0.0000 H   0  0  0  0  0  0  0  0  0  0  0  0
    7.8732   -3.1026    0.0000 H   0  0  0  0  0  0  0  0  0  0  0  0
    9.1431    0.3398    0.0000 H   0  0  0  0  0  0  0  0  0  0  0  0
    9.0280    2.2041    0.0000 H   0  0  0  0  0  0  0  0  0  0  0  0
    3.6008    0.7499    0.0000 H   0  0  0  0  0  0  0  0  0  0  0  0
    5.9300   -2.7852    0.0000 H   0  0  0  0  0  0  0  0  0  0  0  0
    3.5000   -1.3823    0.0000 H   0  0  0  0  0  0  0  0  0  0  0  0
    5.2526    3.8780    0.0000 H   0  0  0  0  0  0  0  0  0  0  0  0
    6.0334    4.0872    0.0000 H   0  0  0  0  0  0  0  0  0  0  0  0
    9.4773    3.9213    0.0000 H   0  0  0  0  0  0  0  0  0  0  0  0
    7.3372    5.0543    0.0000 H   0  0  0  0  0  0  0  0  0  0  0  0
    3.6400    4.0636    0.0000 H   0  0  0  0  0  0  0  0  0  0  0  0
    2.3531    2.0124    0.0000 H   0  0  0  0  0  0  0  0  0  0  0  0
    2.0000   -3.3222    0.0000 H   0  0  0  0  0  0  0  0  0  0  0  0
    5.0000   -5.0543    0.0000 H   0  0  0  0  0  0  0  0  0  0  0  0
    2.6900   -4.5174    0.0000 H   0  0  0  0  0  0  0  0  0  0  0  0
  1 21  1  0  0  0  0
  1 23  1  0  0  0  0
  2 19  1  0  0  0  0
  2 25  1  0  0  0  0
 20  3  1  6  0  0  0
  3 53  1  0  0  0  0
 22  4  1  6  0  0  0
  4 54  1  0  0  0  0
 23  5  1  1  0  0  0
  5 28  1  0  0  0  0
  6 24  1  0  0  0  0
  6 29  1  0  0  0  0
  7 25  2  0  0  0  0
  8 28  2  0  0  0  0
  9 29  2  0  0  0  0
 10 33  1  0  0  0  0
 10 59  1  0  0  0  0
 11 35  1  0  0  0  0
 11 60  1  0  0  0  0
 12 37  1  0  0  0  0
 12 61  1  0  0  0  0
 13 38  1  0  0  0  0
 13 62  1  0  0  0  0
 14 39  1  0  0  0  0
 14 63  1  0  0  0  0
 15 40  1  0  0  0  0
 15 64  1  0  0  0  0
 16 43  1  0  0  0  0
 16 65  1  0  0  0  0
 17 44  1  0  0  0  0
 17 66  1  0  0  0  0
 18 45  1  0  0  0  0
 18 67  1  0  0  0  0
 19 20  1  0  0  0  0
 19 22  1  0  0  0  0
 19 46  1  6  0  0  0
 20 21  1  0  0  0  0
 20 47  1  0  0  0  0
 21 24  1  0  0  0  0
 21 48  1  6  0  0  0
 22 23  1  0  0  0  0
 22 49  1  0  0  0  0
 23 50  1  0  0  0  0
 24 51  1  0  0  0  0
 24 52  1  0  0  0  0
 25 26  1  0  0  0  0
 26 27  1  0  0  0  0
 26 32  2  0  0  0  0
 27 30  1  0  0  0  0
 27 33  2  0  0  0  0
 28 34  1  0  0  0  0
 29 31  1  0  0  0  0
 30 31  1  0  0  0  0
 30 35  2  0  0  0  0
 31 36  2  0  0  0  0
 32 37  1  0  0  0  0
 32 55  1  0  0  0  0
 33 38  1  0  0  0  0
 34 41  2  0  0  0  0
 34 42  1  0  0  0  0
 35 39  1  0  0  0  0
 36 40  1  0  0  0  0
 36 56  1  0  0  0  0
 37 38  2  0  0  0  0
 39 40  2  0  0  0  0
 41 44  1  0  0  0  0
 41 57  1  0  0  0  0
 42 43  2  0  0  0  0
 42 58  1  0  0  0  0
 43 45  1  0  0  0  0
 44 45  2  0  0  0  0
M  END
> <PUBCHEM_COMPOUND_CID>
73568

> <PUBCHEM_COMPOUND_CANONICALIZED>
1

> <PUBCHEM_CACTVS_COMPLEXITY>
1090

> <PUBCHEM_CACTVS_HBOND_ACCEPTOR>
18

> <PUBCHEM_CACTVS_HBOND_DONOR>
11

> <PUBCHEM_CACTVS_ROTATABLE_BOND>
3

> <PUBCHEM_CACTVS_SUBSKEYS>
AAADceB4PgAAAAAAAAAAAAAAAAAAAAAAAAA0YMEAAAAAAAABUAAAGgAACAAADBSwmAMwDoAABgCIAiDSCAACAAAkIAAAiAEGiMgZNzKCNRqicQElwBUPuYfK7PzOoAABCAAYQABAAAIQADCAAAAAAAAAAA==

> <PUBCHEM_IUPAC_OPENEYE_NAME>
[(1S,19R,21S,22R,23R)-6,7,8,11,12,13,22,23-octahydroxy-3,16-dioxo-2,17,20-trioxatetracyclo[17.3.1.04,9.010,15]tricosa-4,6,8,10,12,14-hexaen-21-yl] 3,4,5-trihydroxybenzoate

> <PUBCHEM_IUPAC_CAS_NAME>
3,4,5-trihydroxybenzoic acid [(1S,19R,21S,22R,23R)-6,7,8,11,12,13,22,23-octahydroxy-3,16-dioxo-2,17,20-trioxatetracyclo[17.3.1.04,9.010,15]tricosa-4,6,8,10,12,14-hexaen-21-yl] ester

> <PUBCHEM_IUPAC_NAME_MARKUP>
[(1<I>S</I>,19<I>R</I>,21<I>S</I>,22<I>R</I>,23<I>R</I>)-6,7,8,11,12,13,22,23-octahydroxy-3,16-dioxo-2,17,20-trioxatetracyclo[17.3.1.0<SUP>4,9</SUP>.0<SUP>10,15</SUP>]tricosa-4,6,8,10,12,14-hexaen-21-yl] 3,4,5-trihydroxybenzoate

> <PUBCHEM_IUPAC_NAME>
[(1S,19R,21S,22R,23R)-6,7,8,11,12,13,22,23-octahydroxy-3,16-dioxo-2,17,20-trioxatetracyclo[17.3.1.04,9.010,15]tricosa-4,6,8,10,12,14-hexaen-21-yl] 3,4,5-trihydroxybenzoate

> <PUBCHEM_IUPAC_SYSTEMATIC_NAME>
[(1S,19R,21S,22R,23R)-6,7,8,11,12,13,22,23-octakis(oxidanyl)-3,16-bis(oxidanylidene)-2,17,20-trioxatetracyclo[17.3.1.04,9.010,15]tricosa-4,6,8,10,12,14-hexaen-21-yl] 3,4,5-tris(oxidanyl)benzoate

> <PUBCHEM_IUPAC_TRADITIONAL_NAME>
3,4,5-trihydroxybenzoic acid [(1S,19R,21S,22R,23R)-6,7,8,11,12,13,22,23-octahydroxy-3,16-diketo-2,17,20-trioxatetracyclo[17.3.1.04,9.010,15]tricosa-4,6,8,10,12,14-hexaen-21-yl] ester

> <PUBCHEM_IUPAC_INCHI>
InChI=1S/C27H22O18/c28-9-1-6(2-10(29)16(9)32)24(39)45-27-22(38)23-19(35)13(43-27)5-42-25(40)7-3-11(30)17(33)20(36)14(7)15-8(26(41)44-23)4-12(31)18(34)21(15)37/h1-4,13,19,22-23,27-38H,5H2/t13-,19-,22-,23+,27+/m1/s1

> <PUBCHEM_IUPAC_INCHIKEY>
TUSDEZXZIZRFGC-XIGLUPEJSA-N

> <PUBCHEM_XLOGP3_AA>
0.1

> <PUBCHEM_EXACT_MASS>
634.080614

> <PUBCHEM_MOLECULAR_FORMULA>
C27H22O18

> <PUBCHEM_MOLECULAR_WEIGHT>
634.5

> <PUBCHEM_OPENEYE_CAN_SMILES>
C1C2C(C(C(C(O2)OC(=O)C3=CC(=C(C(=C3)O)O)O)O)OC(=O)C4=CC(=C(C(=C4C5=C(C(=C(C=C5C(=O)O1)O)O)O)O)O)O)O

> <PUBCHEM_OPENEYE_ISO_SMILES>
C1[C@@H]2[C@H]([C@@H]([C@H]([C@@H](O2)OC(=O)C3=CC(=C(C(=C3)O)O)O)O)OC(=O)C4=CC(=C(C(=C4C5=C(C(=C(C=C5C(=O)O1)O)O)O)O)O)O)O

> <PUBCHEM_CACTVS_TPSA>
311

> <PUBCHEM_MONOISOTOPIC_WEIGHT>
634.080614

> <PUBCHEM_TOTAL_CHARGE>
0

> <PUBCHEM_HEAVY_ATOM_COUNT>
45

> <PUBCHEM_ATOM_DEF_STEREO_COUNT>
5

> <PUBCHEM_ATOM_UDEF_STEREO_COUNT>
0

> <PUBCHEM_BOND_DEF_STEREO_COUNT>
0

> <PUBCHEM_BOND_UDEF_STEREO_COUNT>
0

> <PUBCHEM_ISOTOPIC_ATOM_COUNT>
0

> <PUBCHEM_COMPONENT_COUNT>
1

> <PUBCHEM_CACTVS_TAUTO_COUNT>
-1

> <PUBCHEM_COORDINATE_TYPE>
1
5
255

> <PUBCHEM_BONDANNOTATIONS>
19  46  6
21  48  6
26  27  8
26  32  8
27  33  8
20  3  6
30  31  8
30  35  8
31  36  8
32  37  8
33  38  8
34  41  8
34  42  8
35  39  8
36  40  8
37  38  8
39  40  8
22  4  6
41  44  8
42  43  8
43  45  8
44  45  8
23  5  5

$$$$
61881
  -OEChem-04052116542D

 51 50  0     0  0  0  0  0  0999 V2000
    8.5697    3.1667    0.0000 O   0  0  0  0  0  0  0  0  0  0  0  0
    1.4030    0.3100    0.0000 O   0  0  0  0  0  0  0  0  0  0  0  0
    7.8682    6.6433    0.0000 O   0  0  0  0  0  0  0  0  0  0  0  0
    3.1350    6.3100    0.0000 C   0  0  0  0  0  0  0  0  0  0  0  0
    3.1350    7.3100    0.0000 C   0  0  0  0  0  0  0  0  0  0  0  0
    2.2690    5.8100    0.0000 C   0  0  0  0  0  0  0  0  0  0  0  0
    4.0010    7.8100    0.0000 C   0  0  0  0  0  0  0  0  0  0  0  0
    2.2690    4.8100    0.0000 C   0  0  0  0  0  0  0  0  0  0  0  0
    4.0010    8.8100    0.0000 C   0  0  0  0  0  0  0  0  0  0  0  0
    1.4030    4.3100    0.0000 C   0  0  0  0  0  0  0  0  0  0  0  0
    4.8671    9.3100    0.0000 C   0  0  0  0  0  0  0  0  0  0  0  0
    1.4030    3.3100    0.0000 C   0  0  0  0  0  0  0  0  0  0  0  0
    4.8671   10.3100    0.0000 C   0  0  0  0  0  0  0  0  0  0  0  0
    2.2690    2.8100    0.0000 C   0  0  0  0  0  0  0  0  0  0  0  0
    0.5369    2.8100    0.0000 C   0  0  0  0  0  0  0  0  0  0  0  0
    2.2690    1.8100    0.0000 C   0  0  0  0  0  0  0  0  0  0  0  0
    0.5369    1.8100    0.0000 C   0  0  0  0  0  0  0  0  0  0  0  0
    1.4030    1.3100    0.0000 C   0  0  0  0  0  0  0  0  0  0  0  0
    8.0697    4.0327    0.0000 C   0  0  0  0  0  0  0  0  0  0  0  0
    9.0697    4.0327    0.0000 C   0  0  0  0  0  0  0  0  0  0  0  0
    8.7342    7.1433    0.0000 C   0  0  0  0  0  0  0  0  0  0  0  0
    3.3471    5.7274    0.0000 H   0  0  0  0  0  0  0  0  0  0  0  0
    3.7456    6.4177    0.0000 H   0  0  0  0  0  0  0  0  0  0  0  0
    2.9230    7.8926    0.0000 H   0  0  0  0  0  0  0  0  0  0  0  0
    2.5244    7.2023    0.0000 H   0  0  0  0  0  0  0  0  0  0  0  0
    2.0569    6.3926    0.0000 H   0  0  0  0  0  0  0  0  0  0  0  0
    1.6584    5.7023    0.0000 H   0  0  0  0  0  0  0  0  0  0  0  0
    4.2131    7.2274    0.0000 H   0  0  0  0  0  0  0  0  0  0  0  0
    4.6116    7.9177    0.0000 H   0  0  0  0  0  0  0  0  0  0  0  0
    2.4810    4.2274    0.0000 H   0  0  0  0  0  0  0  0  0  0  0  0
    2.8796    4.9177    0.0000 H   0  0  0  0  0  0  0  0  0  0  0  0
    3.7890    9.3926    0.0000 H   0  0  0  0  0  0  0  0  0  0  0  0
    3.3905    8.7023    0.0000 H   0  0  0  0  0  0  0  0  0  0  0  0
    1.1909    4.8926    0.0000 H   0  0  0  0  0  0  0  0  0  0  0  0
    0.7924    4.2023    0.0000 H   0  0  0  0  0  0  0  0  0  0  0  0
    5.0791    8.7274    0.0000 H   0  0  0  0  0  0  0  0  0  0  0  0
    5.4776    9.4177    0.0000 H   0  0  0  0  0  0  0  0  0  0  0  0
    5.4871   10.3100    0.0000 H   0  0  0  0  0  0  0  0  0  0  0  0
    4.8671   10.9300    0.0000 H   0  0  0  0  0  0  0  0  0  0  0  0
    4.2471   10.3100    0.0000 H   0  0  0  0  0  0  0  0  0  0  0  0
    2.8059    3.1200    0.0000 H   0  0  0  0  0  0  0  0  0  0  0  0
    0.0000    3.1200    0.0000 H   0  0  0  0  0  0  0  0  0  0  0  0
    2.8059    1.5000    0.0000 H   0  0  0  0  0  0  0  0  0  0  0  0
    0.0000    1.5000    0.0000 H   0  0  0  0  0  0  0  0  0  0  0  0
    7.9620    4.6433    0.0000 H   0  0  0  0  0  0  0  0  0  0  0  0
    7.4871    3.8207    0.0000 H   0  0  0  0  0  0  0  0  0  0  0  0
    9.6523    3.8207    0.0000 H   0  0  0  0  0  0  0  0  0  0  0  0
    9.1773    4.6433    0.0000 H   0  0  0  0  0  0  0  0  0  0  0  0
    0.8660    0.0000    0.0000 H   0  0  0  0  0  0  0  0  0  0  0  0
    9.2712    6.8333    0.0000 H   0  0  0  0  0  0  0  0  0  0  0  0
    8.7342    7.7633    0.0000 H   0  0  0  0  0  0  0  0  0  0  0  0
  1 19  1  0  0  0  0
  1 20  1  0  0  0  0
  2 18  1  0  0  0  0
  2 49  1  0  0  0  0
  3 21  2  0  0  0  0
  4  5  1  0  0  0  0
  4  6  1  0  0  0  0
  4 22  1  0  0  0  0
  4 23  1  0  0  0  0
  5  7  1  0  0  0  0
  5 24  1  0  0  0  0
  5 25  1  0  0  0  0
  6  8  1  0  0  0  0
  6 26  1  0  0  0  0
  6 27  1  0  0  0  0
  7  9  1  0  0  0  0
  7 28  1  0  0  0  0
  7 29  1  0  0  0  0
  8 10  1  0  0  0  0
  8 30  1  0  0  0  0
  8 31  1  0  0  0  0
  9 11  1  0  0  0  0
  9 32  1  0  0  0  0
  9 33  1  0  0  0  0
 10 12  1  0  0  0  0
 10 34  1  0  0  0  0
 10 35  1  0  0  0  0
 11 13  1  0  0  0  0
 11 36  1  0  0  0  0
 11 37  1  0  0  0  0
 12 14  2  0  0  0  0
 12 15  1  0  0  0  0
 13 38  1  0  0  0  0
 13 39  1  0  0  0  0
 13 40  1  0  0  0  0
 14 16  1  0  0  0  0
 14 41  1  0  0  0  0
 15 17  2  0  0  0  0
 15 42  1  0  0  0  0
 16 18  2  0  0  0  0
 16 43  1  0  0  0  0
 17 18  1  0  0  0  0
 17 44  1  0  0  0  0
 19 20  1  0  0  0  0
 19 45  1  0  0  0  0
 19 46  1  0  0  0  0
 20 47  1  0  0  0  0
 20 48  1  0  0  0  0
 21 50  1  0  0  0  0
 21 51  1  0  0  0  0
M  END
> <PUBCHEM_COMPOUND_CID>
61881

> <PUBCHEM_COMPOUND_CANONICALIZED>
1

> <PUBCHEM_CACTVS_COMPLEXITY>
160

> <PUBCHEM_CACTVS_HBOND_ACCEPTOR>
3

> <PUBCHEM_CACTVS_HBOND_DONOR>
1

> <PUBCHEM_CACTVS_ROTATABLE_BOND>
8

> <PUBCHEM_CACTVS_SUBSKEYS>
AAADceB4MAAAAAAAAAAAAAAAEgAAAAAAAAAwAAAAAAAAAAABAAAAGgAACAAADASgmAIyBoAABgCIAiBCgAACAAAgIAAIiAAGCIgIJiKCERKAcAAkwBEImAeAwOAOIAAAAAAAAABAAAAAAAAAAAAAAAAAAA==

> <PUBCHEM_IUPAC_OPENEYE_NAME>
formaldehyde;4-nonylphenol;oxirane

> <PUBCHEM_IUPAC_CAS_NAME>
formaldehyde;4-nonylphenol;oxirane

> <PUBCHEM_IUPAC_NAME_MARKUP>
formaldehyde;4-nonylphenol;oxirane

> <PUBCHEM_IUPAC_NAME>
formaldehyde;4-nonylphenol;oxirane

> <PUBCHEM_IUPAC_SYSTEMATIC_NAME>
methanal;4-nonylphenol;oxirane

> <PUBCHEM_IUPAC_TRADITIONAL_NAME>
ethylene oxide;formaldehyde;4-nonylphenol

> <PUBCHEM_IUPAC_INCHI>
InChI=1S/C15H24O.C2H4O.CH2O/c1-2-3-4-5-6-7-8-9-14-10-12-15(16)13-11-14;1-2-3-1;1-2/h10-13,16H,2-9H2,1H3;1-2H2;1H2

> <PUBCHEM_IUPAC_INCHIKEY>
XDEDAMYMUCXNQI-UHFFFAOYSA-N

> <PUBCHEM_EXACT_MASS>
294.219495

> <PUBCHEM_MOLECULAR_FORMULA>
C18H30O3

> <PUBCHEM_MOLECULAR_WEIGHT>
294.4

> <PUBCHEM_OPENEYE_CAN_SMILES>
CCCCCCCCCC1=CC=C(C=C1)O.C=O.C1CO1

> <PUBCHEM_OPENEYE_ISO_SMILES>
CCCCCCCCCC1=CC=C(C=C1)O.C=O.C1CO1

> <PUBCHEM_CACTVS_TPSA>
49.8

> <PUBCHEM_MONOISOTOPIC_WEIGHT>
294.219495

> <PUBCHEM_TOTAL_CHARGE>
0

> <PUBCHEM_HEAVY_ATOM_COUNT>
21

> <PUBCHEM_ATOM_DEF_STEREO_COUNT>
0

> <PUBCHEM_ATOM_UDEF_STEREO_COUNT>
0

> <PUBCHEM_BOND_DEF_STEREO_COUNT>
0

> <PUBCHEM_BOND_UDEF_STEREO_COUNT>
0

> <PUBCHEM_ISOTOPIC_ATOM_COUNT>
0

> <PUBCHEM_COMPONENT_COUNT>
3

> <PUBCHEM_CACTVS_TAUTO_COUNT>
-1

> <PUBCHEM_COORDINATE_TYPE>
1
5
255

> <PUBCHEM_BONDANNOTATIONS>
12  14  8
12  15  8
14  16  8
15  17  8
16  18  8
17  18  8

$$$$
24754
  -OEChem-04052116542D

 16 16  0     0  0  0  0  0  0999 V2000
    2.8660    0.3450    0.0000 O   0  0  0  0  0  0  0  0  0  0  0  0
    4.5981    1.3450    0.0000 O   0  0  0  0  0  0  0  0  0  0  0  0
    4.5981    0.3450    0.0000 C   0  0  0  0  0  0  0  0  0  0  0  0
    3.7320   -0.1550    0.0000 C   0  0  0  0  0  0  0  0  0  0  0  0
    5.4641   -0.1550    0.0000 C   0  0  0  0  0  0  0  0  0  0  0  0
    3.7320   -1.1550    0.0000 C   0  0  0  0  0  0  0  0  0  0  0  0
    5.4641   -1.1550    0.0000 C   0  0  0  0  0  0  0  0  0  0  0  0
    4.5981   -1.6550    0.0000 C   0  0  0  0  0  0  0  0  0  0  0  0
    6.3301    0.3450    0.0000 C   0  0  0  0  0  2  0  0  0  0  0  0
    2.0000   -0.1550    0.0000 C   0  0  0  0  0  2  0  0  0  0  0  0
    3.1951   -1.4650    0.0000 H   0  0  0  0  0  0  0  0  0  0  0  0
    6.0010   -1.4650    0.0000 H   0  0  0  0  0  0  0  0  0  0  0  0
    4.5981   -2.2750    0.0000 H   0  0  0  0  0  0  0  0  0  0  0  0
    5.1350    1.6550    0.0000 H   0  0  0  0  0  0  0  0  0  0  0  0
    6.8671    0.6550    0.0000 H   0  0  0  0  0  0  0  0  0  0  0  0
    1.4631   -0.4650    0.0000 H   0  0  0  0  0  0  0  0  0  0  0  0
  1  4  1  0  0  0  0
  1 10  1  0  0  0  0
  2  3  1  0  0  0  0
  2 14  1  0  0  0  0
  3  4  1  0  0  0  0
  3  5  2  0  0  0  0
  4  6  2  0  0  0  0
  5  7  1  0  0  0  0
  5  9  1  0  0  0  0
  6  8  1  0  0  0  0
  6 11  1  0  0  0  0
  7  8  2  0  0  0  0
  7 12  1  0  0  0  0
  8 13  1  0  0  0  0
  9 15  1  0  0  0  0
 10 16  1  0  0  0  0
M  END
> <PUBCHEM_COMPOUND_CID>
24754

> <PUBCHEM_COMPOUND_CANONICALIZED>
1

> <PUBCHEM_CACTVS_COMPLEXITY>
103

> <PUBCHEM_CACTVS_HBOND_ACCEPTOR>
2

> <PUBCHEM_CACTVS_HBOND_DONOR>
1

> <PUBCHEM_CACTVS_ROTATABLE_BOND>
1

> <PUBCHEM_CACTVS_SUBSKEYS>
AAADcYBwMAAAAAAAAAAAAAAAAAAAAAAAAAAwAAAAAAAAAAABAAAAGgAACAAADASAmAIwBoAABgCAAiBCAAACCAAgIAAIiAAGiIgNJiKGMRqAcCMkwBELuAeAwDAOAAABAAAIQAAAAAIAABCAAAAAAAAAAA==

> <PUBCHEM_IUPAC_INCHI>
InChI=1S/C8H6O2/c1-6-4-3-5-7(10-2)8(6)9/h1-5,9H

> <PUBCHEM_IUPAC_INCHIKEY>
KXGFMDJXCMQABM-UHFFFAOYSA-N

> <PUBCHEM_XLOGP3>
2.1

> <PUBCHEM_EXACT_MASS>
134.036779

> <PUBCHEM_MOLECULAR_FORMULA>
C8H6O2

> <PUBCHEM_MOLECULAR_WEIGHT>
134.13

> <PUBCHEM_OPENEYE_CAN_SMILES>
[CH]C1=C(C(=CC=C1)O[CH])O

> <PUBCHEM_OPENEYE_ISO_SMILES>
[CH]C1=C(C(=CC=C1)O[CH])O

> <PUBCHEM_CACTVS_TPSA>
29.5

> <PUBCHEM_MONOISOTOPIC_WEIGHT>
134.036779

> <PUBCHEM_TOTAL_CHARGE>
0

> <PUBCHEM_HEAVY_ATOM_COUNT>
10

> <PUBCHEM_ATOM_DEF_STEREO_COUNT>
0

> <PUBCHEM_ATOM_UDEF_STEREO_COUNT>
0

> <PUBCHEM_BOND_DEF_STEREO_COUNT>
0

> <PUBCHEM_BOND_UDEF_STEREO_COUNT>
0

> <PUBCHEM_ISOTOPIC_ATOM_COUNT>
0

> <PUBCHEM_COMPONENT_COUNT>
1

> <PUBCHEM_CACTVS_TAUTO_COUNT>
-1

> <PUBCHEM_COORDINATE_TYPE>
1
5
255

> <PUBCHEM_BONDANNOTATIONS>
3  4  8
3  5  8
4  6  8
5  7  8
6  8  8
7  8  8

$$$$
12793
  -OEChem-04052116542D

 18 18  0     0  0  0  0  0  0999 V2000
    3.7320    1.1900    0.0000 P   0  0  0  0  0  0  0  0  0  0  0  0
    2.8660    0.6900    0.0000 O   0  0  0  0  0  0  0  0  0  0  0  0
    4.5981    1.6900    0.0000 O   0  0  0  0  0  0  0  0  0  0  0  0
    3.2320    2.0560    0.0000 O   0  0  0  0  0  0  0  0  0  0  0  0
    4.2320    0.3240    0.0000 O   0  0  0  0  0  0  0  0  0  0  0  0
    2.8660   -0.3100    0.0000 C   0  0  0  0  0  0  0  0  0  0  0  0
    2.0000   -0.8100    0.0000 C   0  0  0  0  0  0  0  0  0  0  0  0
    3.7320   -0.8100    0.0000 C   0  0  0  0  0  0  0  0  0  0  0  0
    2.0000   -1.8100    0.0000 C   0  0  0  0  0  0  0  0  0  0  0  0
    3.7320   -1.8100    0.0000 C   0  0  0  0  0  0  0  0  0  0  0  0
    2.8660   -2.3100    0.0000 C   0  0  0  0  0  0  0  0  0  0  0  0
    1.4631   -0.5000    0.0000 H   0  0  0  0  0  0  0  0  0  0  0  0
    4.2690   -0.5000    0.0000 H   0  0  0  0  0  0  0  0  0  0  0  0
    1.4631   -2.1200    0.0000 H   0  0  0  0  0  0  0  0  0  0  0  0
    4.2690   -2.1200    0.0000 H   0  0  0  0  0  0  0  0  0  0  0  0
    2.8660   -2.9300    0.0000 H   0  0  0  0  0  0  0  0  0  0  0  0
    4.5981    2.3100    0.0000 H   0  0  0  0  0  0  0  0  0  0  0  0
    2.6120    2.0560    0.0000 H   0  0  0  0  0  0  0  0  0  0  0  0
  1  2  1  0  0  0  0
  1  3  1  0  0  0  0
  1  4  1  0  0  0  0
  1  5  2  0  0  0  0
  2  6  1  0  0  0  0
  3 17  1  0  0  0  0
  4 18  1  0  0  0  0
  6  7  2  0  0  0  0
  6  8  1  0  0  0  0
  7  9  1  0  0  0  0
  7 12  1  0  0  0  0
  8 10  2  0  0  0  0
  8 13  1  0  0  0  0
  9 11  2  0  0  0  0
  9 14  1  0  0  0  0
 10 11  1  0  0  0  0
 10 15  1  0  0  0  0
 11 16  1  0  0  0  0
M  END
> <PUBCHEM_COMPOUND_CID>
12793

> <PUBCHEM_COMPOUND_CANONICALIZED>
1

> <PUBCHEM_CACTVS_COMPLEXITY>
158

> <PUBCHEM_CACTVS_HBOND_ACCEPTOR>
4

> <PUBCHEM_CACTVS_HBOND_DONOR>
2

> <PUBCHEM_CACTVS_ROTATABLE_BOND>
2

> <PUBCHEM_CACTVS_SUBSKEYS>
AAADcYBgOAIAAAAAAAAAAAAAAAAAAAAAAAAwAAAAAAAAAAABAAAAGgAACCAACASAkAAwBoAAARCAQCBCAIACAAAgIAAIiAAGCIgIJiKAERKAMAAkwBEIiAeAQAAAAAAAAAAAAAAAAAAAAAAAAAAAAAAAAA==

> <PUBCHEM_IUPAC_OPENEYE_NAME>
phenyl dihydrogen phosphate

> <PUBCHEM_IUPAC_CAS_NAME>
phenyl dihydrogen phosphate

> <PUBCHEM_IUPAC_NAME_MARKUP>
phenyl dihydrogen phosphate

> <PUBCHEM_IUPAC_NAME>
phenyl dihydrogen phosphate

> <PUBCHEM_IUPAC_SYSTEMATIC_NAME>
phenyl dihydrogen phosphate

> <PUBCHEM_IUPAC_TRADITIONAL_NAME>
phenyl dihydrogen phosphate

> <PUBCHEM_IUPAC_INCHI>
InChI=1S/C6H7O4P/c7-11(8,9)10-6-4-2-1-3-5-6/h1-5H,(H2,7,8,9)

> <PUBCHEM_IUPAC_INCHIKEY>
CMPQUABWPXYYSH-UHFFFAOYSA-N

> <PUBCHEM_XLOGP3_AA>
0.3

> <PUBCHEM_EXACT_MASS>
174.008196

> <PUBCHEM_MOLECULAR_FORMULA>
C6H7O4P

> <PUBCHEM_MOLECULAR_WEIGHT>
174.09

> <PUBCHEM_OPENEYE_CAN_SMILES>
C1=CC=C(C=C1)OP(=O)(O)O

> <PUBCHEM_OPENEYE_ISO_SMILES>
C1=CC=C(C=C1)OP(=O)(O)O

> <PUBCHEM_CACTVS_TPSA>
66.8

> <PUBCHEM_MONOISOTOPIC_WEIGHT>
174.008196

> <PUBCHEM_TOTAL_CHARGE>
0

> <PUBCHEM_HEAVY_ATOM_COUNT>
11

> <PUBCHEM_ATOM_DEF_STEREO_COUNT>
0

> <PUBCHEM_ATOM_UDEF_STEREO_COUNT>
0

> <PUBCHEM_BOND_DEF_STEREO_COUNT>
0

> <PUBCHEM_BOND_UDEF_STEREO_COUNT>
0

> <PUBCHEM_ISOTOPIC_ATOM_COUNT>
0

> <PUBCHEM_COMPONENT_COUNT>
1

> <PUBCHEM_CACTVS_TAUTO_COUNT>
-1

> <PUBCHEM_COORDINATE_TYPE>
1
5
255

> <PUBCHEM_BONDANNOTATIONS>
10  11  8
6  7  8
6  8  8
7  9  8
8  10  8
9  11  8

$$$$
7115
  -OEChem-04052116542D

 32 34  0     0  0  0  0  0  0999 V2000
    2.8660   -1.0000    0.0000 C   0  0  0  0  0  0  0  0  0  0  0  0
    2.8660    1.0000    0.0000 C   0  0  0  0  0  0  0  0  0  0  0  0
    2.8660   -2.0000    0.0000 C   0  0  0  0  0  0  0  0  0  0  0  0
    2.8660    2.0000    0.0000 C   0  0  0  0  0  0  0  0  0  0  0  0
    2.0000   -0.5000    0.0000 C   0  0  0  0  0  0  0  0  0  0  0  0
    2.0000    0.5000    0.0000 C   0  0  0  0  0  0  0  0  0  0  0  0
    3.7320   -0.5000    0.0000 C   0  0  0  0  0  0  0  0  0  0  0  0
    3.7320    0.5000    0.0000 C   0  0  0  0  0  0  0  0  0  0  0  0
    2.0000   -2.5000    0.0000 C   0  0  0  0  0  0  0  0  0  0  0  0
    3.7320    2.5000    0.0000 C   0  0  0  0  0  0  0  0  0  0  0  0
    3.7320   -2.5000    0.0000 C   0  0  0  0  0  0  0  0  0  0  0  0
    2.0000    2.5000    0.0000 C   0  0  0  0  0  0  0  0  0  0  0  0
    2.0000   -3.5000    0.0000 C   0  0  0  0  0  0  0  0  0  0  0  0
    3.7320    3.5000    0.0000 C   0  0  0  0  0  0  0  0  0  0  0  0
    3.7320   -3.5000    0.0000 C   0  0  0  0  0  0  0  0  0  0  0  0
    2.0000    3.5000    0.0000 C   0  0  0  0  0  0  0  0  0  0  0  0
    2.8660   -4.0000    0.0000 C   0  0  0  0  0  0  0  0  0  0  0  0
    2.8660    4.0000    0.0000 C   0  0  0  0  0  0  0  0  0  0  0  0
    1.4631   -0.8100    0.0000 H   0  0  0  0  0  0  0  0  0  0  0  0
    1.4631    0.8100    0.0000 H   0  0  0  0  0  0  0  0  0  0  0  0
    4.2690   -0.8100    0.0000 H   0  0  0  0  0  0  0  0  0  0  0  0
    4.2690    0.8100    0.0000 H   0  0  0  0  0  0  0  0  0  0  0  0
    1.4631   -2.1900    0.0000 H   0  0  0  0  0  0  0  0  0  0  0  0
    4.2690    2.1900    0.0000 H   0  0  0  0  0  0  0  0  0  0  0  0
    4.2690   -2.1900    0.0000 H   0  0  0  0  0  0  0  0  0  0  0  0
    1.4631    2.1900    0.0000 H   0  0  0  0  0  0  0  0  0  0  0  0
    1.4631   -3.8100    0.0000 H   0  0  0  0  0  0  0  0  0  0  0  0
    4.2690    3.8100    0.0000 H   0  0  0  0  0  0  0  0  0  0  0  0
    4.2690   -3.8100    0.0000 H   0  0  0  0  0  0  0  0  0  0  0  0
    1.4631    3.8100    0.0000 H   0  0  0  0  0  0  0  0  0  0  0  0
    2.8660   -4.6200    0.0000 H   0  0  0  0  0  0  0  0  0  0  0  0
    2.8660    4.6200    0.0000 H   0  0  0  0  0  0  0  0  0  0  0  0
  1  3  1  0  0  0  0
  1  5  2  0  0  0  0
  1  7  1  0  0  0  0
  2  4  1  0  0  0  0
  2  6  2  0  0  0  0
  2  8  1  0  0  0  0
  3  9  2  0  0  0  0
  3 11  1  0  0  0  0
  4 10  2  0  0  0  0
  4 12  1  0  0  0  0
  5  6  1  0  0  0  0
  5 19  1  0  0  0  0
  6 20  1  0  0  0  0
  7  8  2  0  0  0  0
  7 21  1  0  0  0  0
  8 22  1  0  0  0  0
  9 13  1  0  0  0  0
  9 23  1  0  0  0  0
 10 14  1  0  0  0  0
 10 24  1  0  0  0  0
 11 15  2  0  0  0  0
 11 25  1  0  0  0  0
 12 16  2  0  0  0  0
 12 26  1  0  0  0  0
 13 17  2  0  0  0  0
 13 27  1  0  0  0  0
 14 18  2  0  0  0  0
 14 28  1  0  0  0  0
 15 17  1  0  0  0  0
 15 29  1  0  0  0  0
 16 18  1  0  0  0  0
 16 30  1  0  0  0  0
 17 31  1  0  0  0  0
 18 32  1  0  0  0  0
M  END
> <PUBCHEM_COMPOUND_CID>
7115

> <PUBCHEM_COMPOUND_CANONICALIZED>
1

> <PUBCHEM_CACTVS_COMPLEXITY>
198

> <PUBCHEM_CACTVS_HBOND_ACCEPTOR>
0

> <PUBCHEM_CACTVS_HBOND_DONOR>
0

> <PUBCHEM_CACTVS_ROTATABLE_BOND>
2

> <PUBCHEM_CACTVS_SUBSKEYS>
AAADccB4AAAAAAAAAAAAAAAAAAAAAAAAAAAwYMAAAAAAAAABUAAAGAAAAAAADACAGAAwAIAAAACAAiBCAAACAAAgAAAIiAAAAIgIICKAERCAIAAggAAIiAcAgMAOwAAAAAAAAACAAAAAAAAAAAAAAAAAAA==

> <PUBCHEM_IUPAC_OPENEYE_NAME>
1,4-diphenylbenzene

> <PUBCHEM_IUPAC_CAS_NAME>
1,4-diphenylbenzene

> <PUBCHEM_IUPAC_NAME_MARKUP>
1,4-diphenylbenzene

> <PUBCHEM_IUPAC_NAME>
1,4-diphenylbenzene

> <PUBCHEM_IUPAC_SYSTEMATIC_NAME>
1,4-diphenylbenzene

> <PUBCHEM_IUPAC_TRADITIONAL_NAME>
1,4-diphenylbenzene

> <PUBCHEM_IUPAC_INCHI>
InChI=1S/C18H14/c1-3-7-15(8-4-1)17-11-13-18(14-12-17)16-9-5-2-6-10-16/h1-14H

> <PUBCHEM_IUPAC_INCHIKEY>
XJKSTNDFUHDPQJ-UHFFFAOYSA-N

> <PUBCHEM_XLOGP3>
5.6

> <PUBCHEM_EXACT_MASS>
230.10955

> <PUBCHEM_MOLECULAR_FORMULA>
C18H14

> <PUBCHEM_MOLECULAR_WEIGHT>
230.3

> <PUBCHEM_OPENEYE_CAN_SMILES>
C1=CC=C(C=C1)C2=CC=C(C=C2)C3=CC=CC=C3

> <PUBCHEM_OPENEYE_ISO_SMILES>
C1=CC=C(C=C1)C2=CC=C(C=C2)C3=CC=CC=C3

> <PUBCHEM_CACTVS_TPSA>
0

> <PUBCHEM_MONOISOTOPIC_WEIGHT>
230.10955

> <PUBCHEM_TOTAL_CHARGE>
0

> <PUBCHEM_HEAVY_ATOM_COUNT>
18

> <PUBCHEM_ATOM_DEF_STEREO_COUNT>
0

> <PUBCHEM_ATOM_UDEF_STEREO_COUNT>
0

> <PUBCHEM_BOND_DEF_STEREO_COUNT>
0

> <PUBCHEM_BOND_UDEF_STEREO_COUNT>
0

> <PUBCHEM_ISOTOPIC_ATOM_COUNT>
0

> <PUBCHEM_COMPONENT_COUNT>
1

> <PUBCHEM_CACTVS_TAUTO_COUNT>
-1

> <PUBCHEM_COORDINATE_TYPE>
1
5
255

> <PUBCHEM_BONDANNOTATIONS>
1  5  8
1  7  8
10  14  8
11  15  8
12  16  8
13  17  8
14  18  8
15  17  8
16  18  8
2  6  8
2  8  8
3  11  8
3  9  8
4  10  8
4  12  8
5  6  8
7  8  8
9  13  8

$$$$
5780
  -OEChem-04052116542D

 26 25  0     1  0  0  0  0  0999 V2000
    5.1350   -1.2500    0.0000 O   0  0  0  0  0  0  0  0  0  0  0  0
    6.0010    1.2500    0.0000 O   0  0  0  0  0  0  0  0  0  0  0  0
    4.2690    1.2500    0.0000 O   0  0  0  0  0  0  0  0  0  0  0  0
    6.8671   -1.2500    0.0000 O   0  0  0  0  0  0  0  0  0  0  0  0
    2.5369    0.2500    0.0000 O   0  0  0  0  0  0  0  0  0  0  0  0
    8.5991   -0.2500    0.0000 O   0  0  0  0  0  0  0  0  0  0  0  0
    5.1350   -0.2500    0.0000 C   0  0  1  0  0  0  0  0  0  0  0  0
    6.0010    0.2500    0.0000 C   0  0  1  0  0  0  0  0  0  0  0  0
    4.2690    0.2500    0.0000 C   0  0  1  0  0  0  0  0  0  0  0  0
    6.8671   -0.2500    0.0000 C   0  0  2  0  0  0  0  0  0  0  0  0
    3.4030   -0.2500    0.0000 C   0  0  0  0  0  0  0  0  0  0  0  0
    7.7331    0.2500    0.0000 C   0  0  0  0  0  0  0  0  0  0  0  0
    5.6720   -0.5600    0.0000 H   0  0  0  0  0  0  0  0  0  0  0  0
    6.5380    0.5600    0.0000 H   0  0  0  0  0  0  0  0  0  0  0  0
    4.8059    0.5600    0.0000 H   0  0  0  0  0  0  0  0  0  0  0  0
    6.3301   -0.5600    0.0000 H   0  0  0  0  0  0  0  0  0  0  0  0
    3.0044   -0.7249    0.0000 H   0  0  0  0  0  0  0  0  0  0  0  0
    3.8015   -0.7249    0.0000 H   0  0  0  0  0  0  0  0  0  0  0  0
    8.1316    0.7249    0.0000 H   0  0  0  0  0  0  0  0  0  0  0  0
    7.3346    0.7249    0.0000 H   0  0  0  0  0  0  0  0  0  0  0  0
    4.5981   -1.5600    0.0000 H   0  0  0  0  0  0  0  0  0  0  0  0
    6.5380    1.5600    0.0000 H   0  0  0  0  0  0  0  0  0  0  0  0
    3.7320    1.5600    0.0000 H   0  0  0  0  0  0  0  0  0  0  0  0
    7.4040   -1.5600    0.0000 H   0  0  0  0  0  0  0  0  0  0  0  0
    2.0000   -0.0600    0.0000 H   0  0  0  0  0  0  0  0  0  0  0  0
    9.1360    0.0600    0.0000 H   0  0  0  0  0  0  0  0  0  0  0  0
  7  1  1  6  0  0  0
  1 21  1  0  0  0  0
  8  2  1  6  0  0  0
  2 22  1  0  0  0  0
  9  3  1  1  0  0  0
  3 23  1  0  0  0  0
 10  4  1  6  0  0  0
  4 24  1  0  0  0  0
  5 11  1  0  0  0  0
  5 25  1  0  0  0  0
  6 12  1  0  0  0  0
  6 26  1  0  0  0  0
  7  8  1  0  0  0  0
  7  9  1  0  0  0  0
  7 13  1  0  0  0  0
  8 10  1  0  0  0  0
  8 14  1  0  0  0  0
  9 11  1  0  0  0  0
  9 15  1  0  0  0  0
 10 12  1  0  0  0  0
 10 16  1  0  0  0  0
 11 17  1  0  0  0  0
 11 18  1  0  0  0  0
 12 19  1  0  0  0  0
 12 20  1  0  0  0  0
M  END
> <PUBCHEM_COMPOUND_CID>
5780

> <PUBCHEM_COMPOUND_CANONICALIZED>
1

> <PUBCHEM_CACTVS_COMPLEXITY>
105

> <PUBCHEM_CACTVS_HBOND_ACCEPTOR>
6

> <PUBCHEM_CACTVS_HBOND_DONOR>
6

> <PUBCHEM_CACTVS_ROTATABLE_BOND>
5

> <PUBCHEM_CACTVS_SUBSKEYS>
AAADccBgOAAAAAAAAAAAAAAAAAAAAAAAAAAAAAAAAAAAAAAAAAAAGgAACAAACBSggAIAAAAAAgAAAAAAAAAAAAAAAAAAAAAAAAABEAIAAAAAQAAFAAABAAHAYAQAAAAAAAAAAAAAAAAAAAAAAAAAAAAAAA==

> <PUBCHEM_IUPAC_OPENEYE_NAME>
(2R,3R,4R,5S)-hexane-1,2,3,4,5,6-hexol

> <PUBCHEM_IUPAC_CAS_NAME>
(2R,3R,4R,5S)-hexane-1,2,3,4,5,6-hexol

> <PUBCHEM_IUPAC_NAME_MARKUP>
(2<I>R</I>,3<I>R</I>,4<I>R</I>,5<I>S</I>)-hexane-1,2,3,4,5,6-hexol

> <PUBCHEM_IUPAC_NAME>
(2R,3R,4R,5S)-hexane-1,2,3,4,5,6-hexol

> <PUBCHEM_IUPAC_SYSTEMATIC_NAME>
(2R,3R,4R,5S)-hexane-1,2,3,4,5,6-hexol

> <PUBCHEM_IUPAC_TRADITIONAL_NAME>
(2R,3R,4R,5S)-hexane-1,2,3,4,5,6-hexol

> <PUBCHEM_IUPAC_INCHI>
InChI=1S/C6H14O6/c7-1-3(9)5(11)6(12)4(10)2-8/h3-12H,1-2H2/t3-,4+,5-,6-/m1/s1

> <PUBCHEM_IUPAC_INCHIKEY>
FBPFZTCFMRRESA-JGWLITMVSA-N

> <PUBCHEM_XLOGP3>
-3.1

> <PUBCHEM_EXACT_MASS>
182.079038

> <PUBCHEM_MOLECULAR_FORMULA>
C6H14O6

> <PUBCHEM_MOLECULAR_WEIGHT>
182.17

> <PUBCHEM_OPENEYE_CAN_SMILES>
C(C(C(C(C(CO)O)O)O)O)O

> <PUBCHEM_OPENEYE_ISO_SMILES>
C([C@H]([C@H]([C@@H]([C@H](CO)O)O)O)O)O

> <PUBCHEM_CACTVS_TPSA>
121

> <PUBCHEM_MONOISOTOPIC_WEIGHT>
182.079038

> <PUBCHEM_TOTAL_CHARGE>
0

> <PUBCHEM_HEAVY_ATOM_COUNT>
12

> <PUBCHEM_ATOM_DEF_STEREO_COUNT>
4

> <PUBCHEM_ATOM_UDEF_STEREO_COUNT>
0

> <PUBCHEM_BOND_DEF_STEREO_COUNT>
0

> <PUBCHEM_BOND_UDEF_STEREO_COUNT>
0

> <PUBCHEM_ISOTOPIC_ATOM_COUNT>
0

> <PUBCHEM_COMPONENT_COUNT>
1

> <PUBCHEM_CACTVS_TAUTO_COUNT>
-1

> <PUBCHEM_COORDINATE_TYPE>
1
5
255

> <PUBCHEM_BONDANNOTATIONS>
7  1  6
8  2  6
9  3  5
10  4  6

$$$$
3598
  -OEChem-04052116542D

 27 28  0     0  0  0  0  0  0999 V2000
    6.2386    0.1416    0.0000 Cl  0  0  0  0  0  0  0  0  0  0  0  0
    6.1198   -1.8794    0.0000 Cl  0  0  0  0  0  0  0  0  0  0  0  0
    3.6674    3.2057    0.0000 Cl  0  0  0  0  0  0  0  0  0  0  0  0
    2.5369   -3.2057    0.0000 Cl  0  0  0  0  0  0  0  0  0  0  0  0
    6.9226    2.0209    0.0000 Cl  0  0  0  0  0  0  0  0  0  0  0  0
    6.0010   -3.2057    0.0000 Cl  0  0  0  0  0  0  0  0  0  0  0  0
    2.9834    1.3264    0.0000 O   0  0  0  0  0  0  0  0  0  0  0  0
    2.5369   -1.2057    0.0000 O   0  0  0  0  0  0  0  0  0  0  0  0
    4.2690   -0.2057    0.0000 C   0  0  0  0  0  0  0  0  0  0  0  0
    4.6110    0.7340    0.0000 C   0  0  0  0  0  0  0  0  0  0  0  0
    4.2690   -1.2057    0.0000 C   0  0  0  0  0  0  0  0  0  0  0  0
    3.9682    1.5000    0.0000 C   0  0  0  0  0  0  0  0  0  0  0  0
    3.4030   -1.7057    0.0000 C   0  0  0  0  0  0  0  0  0  0  0  0
    5.5958    0.9076    0.0000 C   0  0  0  0  0  0  0  0  0  0  0  0
    5.1350   -1.7057    0.0000 C   0  0  0  0  0  0  0  0  0  0  0  0
    4.3102    2.4397    0.0000 C   0  0  0  0  0  0  0  0  0  0  0  0
    3.4030   -2.7057    0.0000 C   0  0  0  0  0  0  0  0  0  0  0  0
    5.9378    1.8473    0.0000 C   0  0  0  0  0  0  0  0  0  0  0  0
    5.1350   -2.7057    0.0000 C   0  0  0  0  0  0  0  0  0  0  0  0
    5.2950    2.6133    0.0000 C   0  0  0  0  0  0  0  0  0  0  0  0
    4.2690   -3.2057    0.0000 C   0  0  0  0  0  0  0  0  0  0  0  0
    3.8180    0.2197    0.0000 H   0  0  0  0  0  0  0  0  0  0  0  0
    4.8796   -0.3134    0.0000 H   0  0  0  0  0  0  0  0  0  0  0  0
    5.5071    3.1960    0.0000 H   0  0  0  0  0  0  0  0  0  0  0  0
    4.2690   -3.8257    0.0000 H   0  0  0  0  0  0  0  0  0  0  0  0
    2.5849    1.8013    0.0000 H   0  0  0  0  0  0  0  0  0  0  0  0
    2.0000   -1.5157    0.0000 H   0  0  0  0  0  0  0  0  0  0  0  0
  1 14  1  0  0  0  0
  2 15  1  0  0  0  0
  3 16  1  0  0  0  0
  4 17  1  0  0  0  0
  5 18  1  0  0  0  0
  6 19  1  0  0  0  0
  7 12  1  0  0  0  0
  7 26  1  0  0  0  0
  8 13  1  0  0  0  0
  8 27  1  0  0  0  0
  9 10  1  0  0  0  0
  9 11  1  0  0  0  0
  9 22  1  0  0  0  0
  9 23  1  0  0  0  0
 10 12  2  0  0  0  0
 10 14  1  0  0  0  0
 11 13  2  0  0  0  0
 11 15  1  0  0  0  0
 12 16  1  0  0  0  0
 13 17  1  0  0  0  0
 14 18  2  0  0  0  0
 15 19  2  0  0  0  0
 16 20  2  0  0  0  0
 17 21  2  0  0  0  0
 18 20  1  0  0  0  0
 19 21  1  0  0  0  0
 20 24  1  0  0  0  0
 21 25  1  0  0  0  0
M  END
> <PUBCHEM_COMPOUND_CID>
3598

> <PUBCHEM_COMPOUND_CANONICALIZED>
1

> <PUBCHEM_CACTVS_COMPLEXITY>
328

> <PUBCHEM_CACTVS_HBOND_ACCEPTOR>
2

> <PUBCHEM_CACTVS_HBOND_DONOR>
2

> <PUBCHEM_CACTVS_ROTATABLE_BOND>
2

> <PUBCHEM_CACTVS_SUBSKEYS>
AAADcYBwMAAHAAAAAAAAAAAAAAAAAAAAAAAwYAAAAAAAAAABQAAAGgIACAAADAaAmCAwBoAAAgCAAiBCAAACAAAgJUAAikAEC4gIJiKDEhKAcAAkwBEImAeA4OQOACAQIQCJCAQAQCBCARIQCAAAAAAAAA==

> <PUBCHEM_IUPAC_OPENEYE_NAME>
3,4,6-trichloro-2-[(2,3,5-trichloro-6-hydroxy-phenyl)methyl]phenol

> <PUBCHEM_IUPAC_CAS_NAME>
3,4,6-trichloro-2-[(2,3,5-trichloro-6-hydroxyphenyl)methyl]phenol

> <PUBCHEM_IUPAC_NAME_MARKUP>
3,4,6-trichloro-2-[(2,3,5-trichloro-6-hydroxyphenyl)methyl]phenol

> <PUBCHEM_IUPAC_NAME>
3,4,6-trichloro-2-[(2,3,5-trichloro-6-hydroxyphenyl)methyl]phenol

> <PUBCHEM_IUPAC_SYSTEMATIC_NAME>
3,4,6-tris(chloranyl)-2-[[2,3,5-tris(chloranyl)-6-oxidanyl-phenyl]methyl]phenol

> <PUBCHEM_IUPAC_TRADITIONAL_NAME>
3,4,6-trichloro-2-(2,3,5-trichloro-6-hydroxy-benzyl)phenol

> <PUBCHEM_IUPAC_INCHI>
InChI=1S/C13H6Cl6O2/c14-6-2-8(16)12(20)4(10(6)18)1-5-11(19)7(15)3-9(17)13(5)21/h2-3,20-21H,1H2

> <PUBCHEM_IUPAC_INCHIKEY>
ACGUYXCXAPNIKK-UHFFFAOYSA-N

> <PUBCHEM_XLOGP3>
7.5

> <PUBCHEM_EXACT_MASS>
405.846945

> <PUBCHEM_MOLECULAR_FORMULA>
C13H6Cl6O2

> <PUBCHEM_MOLECULAR_WEIGHT>
406.9

> <PUBCHEM_OPENEYE_CAN_SMILES>
C1=C(C(=C(C(=C1Cl)Cl)CC2=C(C(=CC(=C2Cl)Cl)Cl)O)O)Cl

> <PUBCHEM_OPENEYE_ISO_SMILES>
C1=C(C(=C(C(=C1Cl)Cl)CC2=C(C(=CC(=C2Cl)Cl)Cl)O)O)Cl

> <PUBCHEM_CACTVS_TPSA>
40.5

> <PUBCHEM_MONOISOTOPIC_WEIGHT>
403.849896

> <PUBCHEM_TOTAL_CHARGE>
0

> <PUBCHEM_HEAVY_ATOM_COUNT>
21

> <PUBCHEM_ATOM_DEF_STEREO_COUNT>
0

> <PUBCHEM_ATOM_UDEF_STEREO_COUNT>
0

> <PUBCHEM_BOND_DEF_STEREO_COUNT>
0

> <PUBCHEM_BOND_UDEF_STEREO_COUNT>
0

> <PUBCHEM_ISOTOPIC_ATOM_COUNT>
0

> <PUBCHEM_COMPONENT_COUNT>
1

> <PUBCHEM_CACTVS_TAUTO_COUNT>
-1

> <PUBCHEM_COORDINATE_TYPE>
1
5
255

> <PUBCHEM_BONDANNOTATIONS>
10  12  8
10  14  8
11  13  8
11  15  8
12  16  8
13  17  8
14  18  8
15  19  8
16  20  8
17  21  8
18  20  8
19  21  8

$$$$
3259
  -OEChem-04052116542D

 37 41  0     0  0  0  0  0  0999 V2000
    4.3198    2.9155    0.0000 I   0  0  0  0  0  0  0  0  0  0  0  0
    7.8167    2.9155    0.0000 I   0  0  0  0  0  0  0  0  0  0  0  0
    2.5381   -0.1432    0.0000 I   0  0  0  0  0  0  0  0  0  0  0  0
    9.5984   -0.1432    0.0000 I   0  0  0  0  0  0  0  0  0  0  0  0
    5.2592   -0.7069    0.0000 O   0  0  0  0  0  0  0  0  0  0  0  0
    6.0682    1.8809    0.0000 O   0  0  0  0  0  0  0  0  0  0  0  0
    4.9805   -2.4669    0.0000 O   0  0  0  0  0  0  0  0  0  0  0  0
    2.5381    1.9051    0.0000 O   0  0  0  0  0  0  0  0  0  0  0  0
    9.5984    1.9051    0.0000 O   0  0  0  0  0  0  0  0  0  0  0  0
    6.0682   -0.1191    0.0000 C   0  0  0  0  0  0  0  0  0  0  0  0
    6.8773   -0.7069    0.0000 C   0  0  0  0  0  0  0  0  0  0  0  0
    5.2022    0.3809    0.0000 C   0  0  0  0  0  0  0  0  0  0  0  0
    6.9343    0.3809    0.0000 C   0  0  0  0  0  0  0  0  0  0  0  0
    6.5682   -1.6579    0.0000 C   0  0  0  0  0  0  0  0  0  0  0  0
    5.2022    1.3809    0.0000 C   0  0  0  0  0  0  0  0  0  0  0  0
    6.9343    1.3809    0.0000 C   0  0  0  0  0  0  0  0  0  0  0  0
    5.5682   -1.6579    0.0000 C   0  0  0  0  0  0  0  0  0  0  0  0
    7.8728   -1.0134    0.0000 C   0  0  0  0  0  0  0  0  0  0  0  0
    4.3083   -0.1537    0.0000 C   0  0  0  0  0  0  0  0  0  0  0  0
    7.8282   -0.1537    0.0000 C   0  0  0  0  0  0  0  0  0  0  0  0
    6.7691   -2.6800    0.0000 C   0  0  0  0  0  0  0  0  0  0  0  0
    4.3083    1.9156    0.0000 C   0  0  0  0  0  0  0  0  0  0  0  0
    7.8282    1.9156    0.0000 C   0  0  0  0  0  0  0  0  0  0  0  0
    3.4022    0.3601    0.0000 C   0  0  0  0  0  0  0  0  0  0  0  0
    8.7343    0.3601    0.0000 C   0  0  0  0  0  0  0  0  0  0  0  0
    8.2419   -2.1246    0.0000 C   0  0  0  0  0  0  0  0  0  0  0  0
    3.4022    1.4018    0.0000 C   0  0  0  0  0  0  0  0  0  0  0  0
    8.7343    1.4018    0.0000 C   0  0  0  0  0  0  0  0  0  0  0  0
    7.6125   -2.9155    0.0000 C   0  0  0  0  0  0  0  0  0  0  0  0
    4.3154   -0.7737    0.0000 H   0  0  0  0  0  0  0  0  0  0  0  0
    7.8210   -0.7737    0.0000 H   0  0  0  0  0  0  0  0  0  0  0  0
    8.3063   -0.5702    0.0000 H   0  0  0  0  0  0  0  0  0  0  0  0
    6.3139   -3.1009    0.0000 H   0  0  0  0  0  0  0  0  0  0  0  0
    8.8523   -2.2329    0.0000 H   0  0  0  0  0  0  0  0  0  0  0  0
    7.8035   -3.5054    0.0000 H   0  0  0  0  0  0  0  0  0  0  0  0
    2.0000    1.5972    0.0000 H   0  0  0  0  0  0  0  0  0  0  0  0
    9.5960    2.5251    0.0000 H   0  0  0  0  0  0  0  0  0  0  0  0
  1 22  1  0  0  0  0
  2 23  1  0  0  0  0
  3 24  1  0  0  0  0
  4 25  1  0  0  0  0
  5 10  1  0  0  0  0
  5 17  1  0  0  0  0
  6 15  1  0  0  0  0
  6 16  1  0  0  0  0
  7 17  2  0  0  0  0
  8 27  1  0  0  0  0
  8 36  1  0  0  0  0
  9 28  1  0  0  0  0
  9 37  1  0  0  0  0
 10 11  1  0  0  0  0
 10 12  1  0  0  0  0
 10 13  1  0  0  0  0
 11 14  1  0  0  0  0
 11 18  2  0  0  0  0
 12 15  1  0  0  0  0
 12 19  2  0  0  0  0
 13 16  1  0  0  0  0
 13 20  2  0  0  0  0
 14 17  1  0  0  0  0
 14 21  2  0  0  0  0
 15 22  2  0  0  0  0
 16 23  2  0  0  0  0
 18 26  1  0  0  0  0
 18 32  1  0  0  0  0
 19 24  1  0  0  0  0
 19 30  1  0  0  0  0
 20 25  1  0  0  0  0
 20 31  1  0  0  0  0
 21 29  1  0  0  0  0
 21 33  1  0  0  0  0
 22 27  1  0  0  0  0
 23 28  1  0  0  0  0
 24 27  2  0  0  0  0
 25 28  2  0  0  0  0
 26 29  2  0  0  0  0
 26 34  1  0  0  0  0
 29 35  1  0  0  0  0
M  END
> <PUBCHEM_COMPOUND_CID>
3259

> <PUBCHEM_COMPOUND_CANONICALIZED>
1

> <PUBCHEM_CACTVS_COMPLEXITY>
645

> <PUBCHEM_CACTVS_HBOND_ACCEPTOR>
5

> <PUBCHEM_CACTVS_HBOND_DONOR>
2

> <PUBCHEM_CACTVS_ROTATABLE_BOND>
0

> <PUBCHEM_CACTVS_SUBSKEYS>
AAADccB4OAAAA4AAAAAAAAAAAAAAASAAAAA0YMEAAAAAAEiRUAAAGgAgCAAADESCmAAwDoAABgCIAiDSCAACCAAkIAAIiAEECMgMJzKGNRqCeSClwBUIuYeK6PyOoAAACAAYAABAAAAQADAAAAAAAAAAAA==

> <PUBCHEM_IUPAC_OPENEYE_NAME>
3',6'-dihydroxy-2',4',5',7'-tetraiodo-spiro[isobenzofuran-3,9'-xanthene]-1-one

> <PUBCHEM_IUPAC_CAS_NAME>
3',6'-dihydroxy-2',4',5',7'-tetraiodo-1-spiro[isobenzofuran-3,9'-xanthene]one

> <PUBCHEM_IUPAC_NAME_MARKUP>
3&apos;,6&apos;-dihydroxy-2&apos;,4&apos;,5&apos;,7&apos;-tetraiodospiro[2-benzofuran-3,9&apos;-xanthene]-1-one

> <PUBCHEM_IUPAC_NAME>
3',6'-dihydroxy-2',4',5',7'-tetraiodospiro[2-benzofuran-3,9'-xanthene]-1-one

> <PUBCHEM_IUPAC_SYSTEMATIC_NAME>
2',4',5',7'-tetrakis(iodanyl)-3',6'-bis(oxidanyl)spiro[2-benzofuran-3,9'-xanthene]-1-one

> <PUBCHEM_IUPAC_TRADITIONAL_NAME>
3',6'-dihydroxy-2',4',5',7'-tetraiodo-spiro[phthalan-3,9'-xanthene]-1-one

> <PUBCHEM_IUPAC_INCHI>
InChI=1S/C20H8I4O5/c21-11-5-9-17(13(23)15(11)25)28-18-10(6-12(22)16(26)14(18)24)20(9)8-4-2-1-3-7(8)19(27)29-20/h1-6,25-26H

> <PUBCHEM_IUPAC_INCHIKEY>
OALHHIHQOFIMEF-UHFFFAOYSA-N

> <PUBCHEM_XLOGP3_AA>
6

> <PUBCHEM_EXACT_MASS>
835.6551

> <PUBCHEM_MOLECULAR_FORMULA>
C20H8I4O5

> <PUBCHEM_MOLECULAR_WEIGHT>
835.9

> <PUBCHEM_OPENEYE_CAN_SMILES>
C1=CC=C2C(=C1)C(=O)OC23C4=CC(=C(C(=C4OC5=C(C(=C(C=C35)I)O)I)I)O)I

> <PUBCHEM_OPENEYE_ISO_SMILES>
C1=CC=C2C(=C1)C(=O)OC23C4=CC(=C(C(=C4OC5=C(C(=C(C=C35)I)O)I)I)O)I

> <PUBCHEM_CACTVS_TPSA>
76

> <PUBCHEM_MONOISOTOPIC_WEIGHT>
835.6551

> <PUBCHEM_TOTAL_CHARGE>
0

> <PUBCHEM_HEAVY_ATOM_COUNT>
29

> <PUBCHEM_ATOM_DEF_STEREO_COUNT>
0

> <PUBCHEM_ATOM_UDEF_STEREO_COUNT>
0

> <PUBCHEM_BOND_DEF_STEREO_COUNT>
0

> <PUBCHEM_BOND_UDEF_STEREO_COUNT>
0

> <PUBCHEM_ISOTOPIC_ATOM_COUNT>
0

> <PUBCHEM_COMPONENT_COUNT>
1

> <PUBCHEM_CACTVS_TAUTO_COUNT>
-1

> <PUBCHEM_COORDINATE_TYPE>
1
5
255

> <PUBCHEM_BONDANNOTATIONS>
11  14  8
11  18  8
12  15  8
12  19  8
13  16  8
13  20  8
14  21  8
15  22  8
16  23  8
18  26  8
19  24  8
20  25  8
21  29  8
22  27  8
23  28  8
24  27  8
25  28  8
26  29  8

$$$$
