
     RDKit          3D

 12 12  0  0  0  0  0  0  0  0999 V2000
    3.2701    0.3397   -0.7081 O   0  0  0  0  0  0  0  0  0  0  0  0
    2.4561    0.1474    0.2306 C   0  0  0  0  0  0  0  0  0  0  0  0
    2.8738   -0.6460    1.2933 O   0  0  0  0  0  0  0  0  0  0  0  0
    1.0394    0.1845   -0.1380 C   0  0  0  0  0  0  0  0  0  0  0  0
    0.2471    1.3070    0.0678 C   0  0  0  0  0  0  0  0  0  0  0  0
   -1.1346    1.1744    0.0898 C   0  0  0  0  0  0  0  0  0  0  0  0
   -1.9883    2.2804    0.0882 O   0  0  0  0  0  0  0  0  0  0  0  0
   -1.6934   -0.0883    0.0947 C   0  0  0  0  0  0  0  0  0  0  0  0
   -2.8696   -0.3110    0.8105 O   0  0  0  0  0  0  0  0  0  0  0  0
   -0.9850   -1.1086   -0.5147 C   0  0  0  0  0  0  0  0  0  0  0  0
   -1.5996   -2.3397   -0.6940 O   0  0  0  0  0  0  0  0  0  0  0  0
    0.3839   -0.9398   -0.6201 C   0  0  0  0  0  0  0  0  0  0  0  0
  1  2  2  0
  2  3  1  0
  2  4  1  0
  4  5  2  0
  5  6  1  0
  6  7  1  0
  6  8  2  0
  8  9  1  0
  8 10  1  0
 10 11  1  0
 10 12  2  0
 12  4  1  0
M  END
>  <zinc_id>  (1) 
ZINC000000001504

>  <smiles>  (1) 
O=C(O)c1cc(O)c(O)c(O)c1

$$$$

     RDKit          3D

 12 13  0  0  0  0  0  0  0  0999 V2000
    3.6908    0.6491    0.8677 C   0  0  0  0  0  0  0  0  0  0  0  0
    3.2396    0.6552   -0.3931 C   0  0  0  0  0  0  0  0  0  0  0  0
    2.4000   -0.4677   -0.8718 C   0  0  0  0  0  0  0  0  0  0  0  0
    1.1259   -0.5894   -0.0917 C   0  0  0  0  0  0  0  0  0  0  0  0
    0.3631   -1.7136   -0.3460 C   0  0  0  0  0  0  0  0  0  0  0  0
   -1.0060   -1.7100   -0.4280 C   0  0  0  0  0  0  0  0  0  0  0  0
   -1.6578   -0.5334   -0.0805 C   0  0  0  0  0  0  0  0  0  0  0  0
   -0.9196    0.4666    0.5434 C   0  0  0  0  0  0  0  0  0  0  0  0
    0.4620    0.5212    0.3956 C   0  0  0  0  0  0  0  0  0  0  0  0
   -1.8929    1.3805    0.9585 O   0  0  0  0  0  0  0  0  0  0  0  0
   -2.9629    1.3150    0.0154 C   0  0  0  0  0  0  0  0  0  0  0  0
   -2.8421    0.0266   -0.5695 O   0  0  0  0  0  0  0  0  0  0  0  0
  1  2  2  0
  2  3  1  0
  3  4  1  0
  4  5  2  0
  5  6  1  0
  6  7  2  0
  7  8  1  0
  8  9  2  0
  8 10  1  0
 10 11  1  0
 11 12  1  0
  9  4  1  0
 12  7  1  0
M  END
>  <zinc_id>  (2) 
ZINC000000002050

>  <smiles>  (2) 
C=CCc1ccc2c(c1)OCO2

$$$$

     RDKit          3D

 13 14  0  0  0  0  0  0  0  0999 V2000
   -2.9600    1.0494    0.7065 C   0  0  0  0  0  0  0  0  0  0  0  0
   -2.0564    0.1009    0.0668 N   0  0  0  0  0  0  0  0  0  0  0  0
   -2.2211   -1.2145   -0.1562 C   0  0  0  0  0  0  0  0  0  0  0  0
   -1.0178   -1.8235   -0.2844 N   0  0  0  0  0  0  0  0  0  0  0  0
   -0.0667   -0.8891   -0.0535 C   0  0  0  0  0  0  0  0  0  0  0  0
   -0.7356    0.3190   -0.1426 C   0  0  0  0  0  0  0  0  0  0  0  0
    0.0362    1.4620   -0.2355 C   0  0  0  0  0  0  0  0  0  0  0  0
   -0.5778    2.5537   -0.3498 O   0  0  0  0  0  0  0  0  0  0  0  0
    1.3692    1.3351   -0.4148 N   0  0  0  0  0  0  0  0  0  0  0  0
    1.9581    0.1967    0.0295 C   0  0  0  0  0  0  0  0  0  0  0  0
    3.2170    0.0466    0.0384 O   0  0  0  0  0  0  0  0  0  0  0  0
    1.2517   -0.9535    0.1479 N   0  0  0  0  0  0  0  0  0  0  0  0
    1.8031   -2.1828    0.6475 C   0  0  0  0  0  0  0  0  0  0  0  0
  1  2  1  0
  2  3  1  0
  3  4  2  0
  4  5  1  0
  5  6  2  0
  6  7  1  0
  7  8  2  0
  7  9  1  0
  9 10  1  0
 10 11  2  0
 10 12  1  0
 12 13  1  0
  6  2  1  0
 12  5  1  0
M  END
>  <zinc_id>  (3) 
ZINC000000002151

>  <smiles>  (3) 
Cn1cnc2c1c(=O)[nH]c(=O)n2C

$$$$

     RDKit          3D

 12 13  0  0  0  0  0  0  0  0999 V2000
    2.7265    0.3434    1.1386 C   0  0  0  0  0  0  0  0  0  0  0  0
    3.3796   -0.4915    0.2629 C   0  0  0  0  0  0  0  0  0  0  0  0
    2.6395   -1.0033   -0.7508 N   0  0  0  0  0  0  0  0  0  0  0  0
    1.2958   -0.9850   -0.6134 C   0  0  0  0  0  0  0  0  0  0  0  0
    0.6948    0.1774   -0.1466 C   0  0  0  0  0  0  0  0  0  0  0  0
   -0.8103   -0.0920    0.4598 C   0  0  1  0  0  0  0  0  0  0  0  0
   -1.3467    1.3909   -0.1058 C   0  0  0  0  0  0  0  0  0  0  0  0
   -2.7899    1.3958    0.3546 C   0  0  0  0  0  0  0  0  0  0  0  0
   -3.2616   -0.0309    0.3542 C   0  0  0  0  0  0  0  0  0  0  0  0
   -2.7245   -0.7229   -0.8570 C   0  0  0  0  0  0  0  0  0  0  0  0
   -1.2894   -0.8217   -0.8878 N   0  0  0  0  0  0  0  0  0  0  0  0
    1.4862    0.8399    0.7912 C   0  0  0  0  0  0  0  0  0  0  0  0
  1  2  2  0
  2  3  1  0
  3  4  2  0
  4  5  1  0
  6  5  1  6
  6  7  1  0
  7  8  1  0
  8  9  1  0
  9 10  1  0
 10 11  1  0
  5 12  2  0
 12  1  1  0
 11  6  1  0
M  END
>  <zinc_id>  (4) 
ZINC000000031164

>  <smiles>  (4) 
c1cncc([C@H]2CCCCN2)c1

$$$$

     RDKit          3D

 12 13  0  0  0  0  0  0  0  0999 V2000
    2.3566   -1.1318   -0.4236 C   0  0  0  0  0  0  0  0  0  0  0  0
    3.1244   -0.5431    0.4762 C   0  0  0  0  0  0  0  0  0  0  0  0
    2.8059    0.7255    0.8126 N   0  0  0  0  0  0  0  0  0  0  0  0
    1.5369    1.1543    0.6286 C   0  0  0  0  0  0  0  0  0  0  0  0
    0.7355    0.4792   -0.2740 C   0  0  0  0  0  0  0  0  0  0  0  0
   -0.8316    0.8839   -0.1971 C   0  0  2  0  0  0  0  0  0  0  0  0
   -1.1688   -0.3077    0.9027 C   0  0  0  0  0  0  0  0  0  0  0  0
   -2.6240    0.0046    1.2361 C   0  0  0  0  0  0  0  0  0  0  0  0
   -3.2753    0.2052   -0.1280 C   0  0  0  0  0  0  0  0  0  0  0  0
   -2.4864   -0.6173   -1.1060 C   0  0  0  0  0  0  0  0  0  0  0  0
   -1.2181   -0.0318   -1.4339 N   0  0  0  0  0  0  0  0  0  0  0  0
    1.0449   -0.8211   -0.4936 C   0  0  0  0  0  0  0  0  0  0  0  0
  1  2  2  0
  2  3  1  0
  3  4  2  0
  4  5  1  0
  6  5  1  6
  6  7  1  0
  7  8  1  0
  8  9  1  0
  9 10  1  0
 10 11  1  0
  5 12  2  0
 12  1  1  0
 11  6  1  0
M  END
>  <zinc_id>  (5) 
ZINC000000031165

>  <smiles>  (5) 
c1cncc([C@@H]2CCCCN2)c1

$$$$

     RDKit          3D

 20 21  0  0  0  0  0  0  0  0999 V2000
   -0.4076   -1.1672   -1.8864 O   0  0  0  0  0  0  0  0  0  0  0  0
   -0.4282   -1.0096   -0.6266 C   0  0  0  0  0  0  0  0  0  0  0  0
   -0.0019   -2.1642    0.1815 C   0  0  0  0  0  0  0  0  0  0  0  0
    1.4640   -2.2706    0.4053 C   0  0  0  0  0  0  0  0  0  0  0  0
    2.2277   -1.0382    0.1462 C   0  0  0  0  0  0  0  0  0  0  0  0
    3.1961   -0.7145    1.0909 C   0  0  0  0  0  0  0  0  0  0  0  0
    4.0671    0.3421    0.8900 C   0  0  0  0  0  0  0  0  0  0  0  0
    3.9877    1.0434   -0.3063 C   0  0  0  0  0  0  0  0  0  0  0  0
    4.5353    2.3003   -0.4641 O   0  0  0  0  0  0  0  0  0  0  0  0
    3.5210    0.3114   -1.3915 C   0  0  0  0  0  0  0  0  0  0  0  0
    2.5096   -0.5809   -1.1366 C   0  0  0  0  0  0  0  0  0  0  0  0
   -1.6372   -0.3110   -0.1638 C   0  0  0  0  0  0  0  0  0  0  0  0
   -2.8948   -0.7111   -0.6000 C   0  0  0  0  0  0  0  0  0  0  0  0
   -3.0541   -2.0474   -0.9363 O   0  0  0  0  0  0  0  0  0  0  0  0
   -4.0160    0.0931   -0.4539 C   0  0  0  0  0  0  0  0  0  0  0  0
   -3.7849    1.4412   -0.2437 C   0  0  0  0  0  0  0  0  0  0  0  0
   -4.8045    2.3687   -0.4062 O   0  0  0  0  0  0  0  0  0  0  0  0
   -2.6199    1.7841    0.4134 C   0  0  0  0  0  0  0  0  0  0  0  0
   -1.5058    0.9606    0.3386 C   0  0  0  0  0  0  0  0  0  0  0  0
   -0.3536    1.3700    0.9680 O   0  0  0  0  0  0  0  0  0  0  0  0
  1  2  2  0
  2  3  1  0
  3  4  1  0
  4  5  1  0
  5  6  2  0
  6  7  1  0
  7  8  2  0
  8  9  1  0
  8 10  1  0
 10 11  2  0
  2 12  1  0
 12 13  2  0
 13 14  1  0
 13 15  1  0
 15 16  2  0
 16 17  1  0
 16 18  1  0
 18 19  2  0
 19 20  1  0
 11  5  1  0
 19 12  1  0
M  END
>  <zinc_id>  (6) 
ZINC000000047553

>  <smiles>  (6) 
O=C(CCc1ccc(O)cc1)c1c(O)cc(O)cc1O

$$$$

     RDKit          3D

 17 19  0  0  0  0  0  0  0  0999 V2000
   -1.5571    2.4569   -1.0476 O   0  0  0  0  0  0  0  0  0  0  0  0
   -1.1626    1.2616   -0.9389 C   0  0  0  0  0  0  0  0  0  0  0  0
    0.1838    0.9219   -0.9946 C   0  0  0  0  0  0  0  0  0  0  0  0
    0.5894   -0.3420   -0.5826 C   0  0  0  0  0  0  0  0  0  0  0  0
    1.8909   -0.4513    0.0910 C   0  0  0  0  0  0  0  0  0  0  0  0
    3.0076   -0.8120   -0.6540 C   0  0  0  0  0  0  0  0  0  0  0  0
    4.2333   -0.1775   -0.4887 C   0  0  0  0  0  0  0  0  0  0  0  0
    4.3975    0.7596    0.5100 C   0  0  0  0  0  0  0  0  0  0  0  0
    3.4442    0.7483    1.5209 C   0  0  0  0  0  0  0  0  0  0  0  0
    2.1710    0.2645    1.2497 C   0  0  0  0  0  0  0  0  0  0  0  0
   -0.3360   -1.2360   -0.3971 O   0  0  0  0  0  0  0  0  0  0  0  0
   -1.6247   -0.9613   -0.3376 C   0  0  0  0  0  0  0  0  0  0  0  0
   -2.5618   -1.8896    0.0989 C   0  0  0  0  0  0  0  0  0  0  0  0
   -3.5689   -1.4820    0.9659 C   0  0  0  0  0  0  0  0  0  0  0  0
   -3.8304   -0.1326    1.1705 C   0  0  0  0  0  0  0  0  0  0  0  0
   -3.1962    0.7270    0.2794 C   0  0  0  0  0  0  0  0  0  0  0  0
   -2.0799    0.3445   -0.4453 C   0  0  0  0  0  0  0  0  0  0  0  0
  1  2  2  0
  2  3  1  0
  3  4  2  0
  4  5  1  0
  5  6  2  0
  6  7  1  0
  7  8  2  0
  8  9  1  0
  9 10  2  0
  4 11  1  0
 11 12  1  0
 12 13  2  0
 13 14  1  0
 14 15  2  0
 15 16  1  0
 16 17  2  0
 17  2  1  0
 10  5  1  0
 17 12  1  0
M  END
>  <zinc_id>  (7) 
ZINC000000057674

>  <smiles>  (7) 
O=c1cc(-c2ccccc2)oc2ccccc12

$$$$

     RDKit          3D

 21 23  0  0  0  0  0  0  0  0999 V2000
   -1.6790   -1.3852   -2.6473 O   0  0  0  0  0  0  0  0  0  0  0  0
   -1.3940   -0.3820   -1.9357 C   0  0  0  0  0  0  0  0  0  0  0  0
    0.0684   -0.1168   -1.7584 C   0  0  0  0  0  0  0  0  0  0  0  0
    0.3845   -0.7242   -0.2370 C   0  0  1  0  0  0  0  0  0  0  0  0
    1.8987   -0.0999   -0.2559 C   0  0  0  0  0  0  0  0  0  0  0  0
    2.7146   -1.0870   -0.8102 C   0  0  0  0  0  0  0  0  0  0  0  0
    4.0456   -1.1881   -0.4236 C   0  0  0  0  0  0  0  0  0  0  0  0
    4.5990   -0.1518    0.3187 C   0  0  0  0  0  0  0  0  0  0  0  0
    5.9076    0.2707    0.1723 O   0  0  0  0  0  0  0  0  0  0  0  0
    3.6909    0.5018    1.1428 C   0  0  0  0  0  0  0  0  0  0  0  0
    4.1981    1.4696    2.0068 O   0  0  0  0  0  0  0  0  0  0  0  0
    2.3222    0.3064    1.0074 C   0  0  0  0  0  0  0  0  0  0  0  0
   -0.2106    0.5516    0.4382 O   0  0  0  0  0  0  0  0  0  0  0  0
   -1.6045    0.5243    0.3178 C   0  0  0  0  0  0  0  0  0  0  0  0
   -2.4487    1.1314    1.2348 C   0  0  0  0  0  0  0  0  0  0  0  0
   -3.7998    0.9075    1.2133 C   0  0  0  0  0  0  0  0  0  0  0  0
   -4.7267    1.5821    1.9838 O   0  0  0  0  0  0  0  0  0  0  0  0
   -4.2860   -0.0809    0.3773 C   0  0  0  0  0  0  0  0  0  0  0  0
   -3.5660   -0.4316   -0.7581 C   0  0  0  0  0  0  0  0  0  0  0  0
   -3.8820   -1.5556   -1.5106 O   0  0  0  0  0  0  0  0  0  0  0  0
   -2.2323   -0.0424   -0.7842 C   0  0  0  0  0  0  0  0  0  0  0  0
  1  2  2  0
  2  3  1  0
  3  4  1  0
  4  5  1  6
  5  6  2  0
  6  7  1  0
  7  8  2  0
  8  9  1  0
  8 10  1  0
 10 11  1  0
 10 12  2  0
  4 13  1  0
 13 14  1  0
 14 15  2  0
 15 16  1  0
 16 17  1  0
 16 18  2  0
 18 19  1  0
 19 20  1  0
 19 21  2  0
 21  2  1  0
 12  5  1  0
 21 14  1  0
M  END
>  <zinc_id>  (8) 
ZINC000000058117

>  <smiles>  (8) 
O=C1C[C@@H](c2ccc(O)c(O)c2)Oc2cc(O)cc(O)c21

$$$$

     RDKit          3D

 14 14  0  0  0  0  0  0  0  0999 V2000
   -3.8581   -1.5511    0.3225 C   0  0  0  0  0  0  0  0  0  0  0  0
   -3.4127   -0.5788   -0.6071 O   0  0  0  0  0  0  0  0  0  0  0  0
   -2.1857    0.0417   -0.3537 C   0  0  0  0  0  0  0  0  0  0  0  0
   -1.0308   -0.7007   -0.1370 C   0  0  0  0  0  0  0  0  0  0  0  0
    0.2052   -0.1739   -0.3996 C   0  0  0  0  0  0  0  0  0  0  0  0
    1.4390   -0.9594   -0.4401 C   0  0  0  0  0  0  0  0  0  0  0  0
    2.3309   -0.9779    0.5205 C   0  0  0  0  0  0  0  0  0  0  0  0
    3.7668   -0.7717    0.3135 C   0  0  0  0  0  0  0  0  0  0  0  0
    4.2282    0.3287    0.7458 O   0  0  0  0  0  0  0  0  0  0  0  0
    4.2740   -1.1667   -0.9282 O   0  0  0  0  0  0  0  0  0  0  0  0
    0.2589    1.0553   -1.0469 C   0  0  0  0  0  0  0  0  0  0  0  0
   -0.8106    1.9375   -0.9527 C   0  0  0  0  0  0  0  0  0  0  0  0
   -2.0476    1.3583   -0.7779 C   0  0  0  0  0  0  0  0  0  0  0  0
   -3.1573    2.1587   -1.0628 O   0  0  0  0  0  0  0  0  0  0  0  0
  1  2  1  0
  2  3  1  0
  3  4  2  0
  4  5  1  0
  5  6  1  0
  6  7  2  0
  7  8  1  0
  8  9  2  0
  8 10  1  0
  5 11  2  0
 11 12  1  0
 12 13  2  0
 13 14  1  0
 13  3  1  0
M  END
>  <zinc_id>  (9) 
ZINC000000058258

>  <smiles>  (9) 
COc1cc(/C=C/C(=O)O)ccc1O

$$$$

     RDKit          3D

 13 14  0  0  0  0  0  0  0  0999 V2000
    2.5563   -1.6116    1.0454 O   0  0  0  0  0  0  0  0  0  0  0  0
    2.5632   -0.5662    0.3452 C   0  0  0  0  0  0  0  0  0  0  0  0
    2.9843   -0.6983   -0.9730 O   0  0  0  0  0  0  0  0  0  0  0  0
    1.9419    0.6573    0.8822 C   0  0  0  0  0  0  0  0  0  0  0  0
    0.6071    0.9377    0.3202 C   0  0  0  0  0  0  0  0  0  0  0  0
    0.2382    2.1515   -0.2472 C   0  0  0  0  0  0  0  0  0  0  0  0
   -1.1060    2.1276   -0.3511 N   0  0  0  0  0  0  0  0  0  0  0  0
   -1.4401    0.8188   -0.4538 C   0  0  0  0  0  0  0  0  0  0  0  0
   -2.5568    0.1732   -0.9442 C   0  0  0  0  0  0  0  0  0  0  0  0
   -2.6914   -1.1801   -0.7356 C   0  0  0  0  0  0  0  0  0  0  0  0
   -1.9137   -1.7450    0.2663 C   0  0  0  0  0  0  0  0  0  0  0  0
   -0.7572   -1.1301    0.7290 C   0  0  0  0  0  0  0  0  0  0  0  0
   -0.4258    0.0652    0.1166 C   0  0  0  0  0  0  0  0  0  0  0  0
  1  2  2  0
  2  3  1  0
  2  4  1  0
  4  5  1  0
  5  6  2  0
  6  7  1  0
  7  8  1  0
  8  9  2  0
  9 10  1  0
 10 11  2  0
 11 12  1  0
 12 13  2  0
 13  5  1  0
 13  8  1  0
M  END
>  <zinc_id>  (10) 
ZINC000000083860

>  <smiles>  (10) 
O=C(O)Cc1c[nH]c2ccccc12

$$$$

     RDKit          3D

 12 12  0  0  0  0  0  0  0  0999 V2000
    1.3911   -0.5708    0.9662 N   0  0  0  0  0  0  0  0  0  0  0  0
    1.4540   -0.7150   -0.6263 C   0  0  1  0  0  0  0  0  0  0  0  0
    0.3622    0.5275   -0.8490 C   0  0  0  0  0  0  0  0  0  0  0  0
   -0.7762    0.1375    0.0353 C   0  0  0  0  0  0  0  0  0  0  0  0
   -1.6457    1.1782    0.3286 C   0  0  0  0  0  0  0  0  0  0  0  0
   -2.9685    0.9248    0.6175 C   0  0  0  0  0  0  0  0  0  0  0  0
   -3.3623   -0.3707    0.8630 C   0  0  0  0  0  0  0  0  0  0  0  0
   -2.4555   -1.3955    0.6786 C   0  0  0  0  0  0  0  0  0  0  0  0
   -1.2001   -1.1602    0.1870 C   0  0  0  0  0  0  0  0  0  0  0  0
    2.7305    0.3006   -0.7322 C   0  0  0  0  0  0  0  0  0  0  0  0
    3.8025   -0.3067   -0.9103 O   0  0  0  0  0  0  0  0  0  0  0  0
    2.6680    1.4504   -0.0086 O   0  0  0  0  0  0  0  0  0  0  0  0
  2  1  1  1
  2  3  1  0
  3  4  1  0
  4  5  2  0
  5  6  1  0
  6  7  2  0
  7  8  1  0
  8  9  2  0
  2 10  1  0
 10 11  2  0
 10 12  1  0
  9  4  1  0
M  END
>  <zinc_id>  (11) 
ZINC000000105196

>  <smiles>  (11) 
N[C@@H](Cc1ccccc1)C(=O)O

$$$$

     RDKit          3D

 12 12  0  0  0  0  0  0  0  0999 V2000
   -2.9412   -0.8962    0.7922 C   0  0  0  0  0  0  0  0  0  0  0  0
   -2.2229   -0.8556   -0.4195 O   0  0  0  0  0  0  0  0  0  0  0  0
   -0.8382   -0.7347   -0.3882 C   0  0  0  0  0  0  0  0  0  0  0  0
   -0.0308   -1.8549   -0.4617 C   0  0  0  0  0  0  0  0  0  0  0  0
    1.3393   -1.6829   -0.3095 C   0  0  0  0  0  0  0  0  0  0  0  0
    1.8731   -0.4516   -0.1153 N   0  0  0  0  0  0  0  0  0  0  0  0
    3.3078   -0.2753    0.0601 C   0  0  0  0  0  0  0  0  0  0  0  0
    1.0166    0.4694    0.3934 C   0  0  0  0  0  0  0  0  0  0  0  0
    1.4060    1.4432    1.0939 O   0  0  0  0  0  0  0  0  0  0  0  0
   -0.3324    0.4780    0.0582 C   0  0  0  0  0  0  0  0  0  0  0  0
   -1.0786    1.7032   -0.0883 C   0  0  0  0  0  0  0  0  0  0  0  0
   -1.4987    2.6574   -0.6154 N   0  0  0  0  0  0  0  0  0  0  0  0
  1  2  1  0
  2  3  1  0
  3  4  1  0
  4  5  2  0
  5  6  1  0
  6  7  1  0
  6  8  1  0
  8  9  2  0
  8 10  1  0
 10 11  1  0
 11 12  3  0
 10  3  2  0
M  END
>  <zinc_id>  (12) 
ZINC000000113473

>  <smiles>  (12) 
COc1ccn(C)c(=O)c1C#N

$$$$

     RDKit          3D

 21 23  0  0  0  0  0  0  0  0999 V2000
   -4.0233    2.7420    0.8938 O   0  0  0  0  0  0  0  0  0  0  0  0
   -3.6444    1.9175    0.2554 C   0  0  0  0  0  0  0  0  0  0  0  0
   -4.3375    0.7297    0.0547 C   0  0  0  0  0  0  0  0  0  0  0  0
   -3.7135   -0.4634   -0.2471 C   0  0  0  0  0  0  0  0  0  0  0  0
   -4.4739   -1.5650   -0.6135 O   0  0  0  0  0  0  0  0  0  0  0  0
   -2.3434   -0.5008   -0.3956 C   0  0  0  0  0  0  0  0  0  0  0  0
   -1.6849    0.7006   -0.4737 C   0  0  0  0  0  0  0  0  0  0  0  0
   -2.3379    1.9031   -0.2159 C   0  0  0  0  0  0  0  0  0  0  0  0
   -0.3320    0.6271   -0.8035 O   0  0  0  0  0  0  0  0  0  0  0  0
    0.3199   -0.4145    0.1490 C   0  0  2  0  0  0  0  0  0  0  0  0
    1.7638   -0.3473   -0.6096 C   0  0  0  0  0  0  0  0  0  0  0  0
    2.2109    0.9334   -0.8781 C   0  0  0  0  0  0  0  0  0  0  0  0
    3.5099    1.3371   -0.6351 C   0  0  0  0  0  0  0  0  0  0  0  0
    4.2937    0.6182    0.2457 C   0  0  0  0  0  0  0  0  0  0  0  0
    5.0522    1.3308    1.1836 O   0  0  0  0  0  0  0  0  0  0  0  0
    3.9202   -0.7007    0.4724 C   0  0  0  0  0  0  0  0  0  0  0  0
    4.6759   -1.3814    1.4334 O   0  0  0  0  0  0  0  0  0  0  0  0
    2.6844   -1.1680    0.0393 C   0  0  0  0  0  0  0  0  0  0  0  0
   -0.2399   -1.7338   -0.8629 C   0  0  1  0  0  0  0  0  0  0  0  0
    0.3771   -2.7755    0.0692 O   0  0  0  0  0  0  0  0  0  0  0  0
   -1.6773   -1.7892   -0.0350 C   0  0  0  0  0  0  0  0  0  0  0  0
  1  2  1  0
  2  3  2  0
  3  4  1  0
  4  5  1  0
  4  6  2  0
  6  7  1  0
  7  8  2  0
  7  9  1  0
  9 10  1  0
 10 11  1  6
 11 12  2  0
 12 13  1  0
 13 14  2  0
 14 15  1  0
 14 16  1  0
 16 17  1  0
 16 18  2  0
 10 19  1  0
 19 20  1  1
 19 21  1  0
  8  2  1  0
 18 11  1  0
 21  6  1  0
M  END
>  <zinc_id>  (13) 
ZINC000000119983

>  <smiles>  (13) 
Oc1cc(O)c2c(c1)O[C@H](c1ccc(O)c(O)c1)[C@@H](O)C2

$$$$

     RDKit          3D

 21 23  0  0  0  0  0  0  0  0999 V2000
    4.4641    2.5195   -0.4608 O   0  0  0  0  0  0  0  0  0  0  0  0
    3.6135    1.5395   -0.0196 C   0  0  0  0  0  0  0  0  0  0  0  0
    4.0713    0.3015    0.4191 C   0  0  0  0  0  0  0  0  0  0  0  0
    3.1856   -0.7112    0.7660 C   0  0  0  0  0  0  0  0  0  0  0  0
    3.5672   -1.9357    1.2677 O   0  0  0  0  0  0  0  0  0  0  0  0
    1.9739   -0.6861    0.1436 C   0  0  0  0  0  0  0  0  0  0  0  0
    1.5695    0.4188   -0.6083 C   0  0  0  0  0  0  0  0  0  0  0  0
    2.2659    1.5976   -0.3522 C   0  0  0  0  0  0  0  0  0  0  0  0
    0.1705    0.4025   -0.5942 O   0  0  0  0  0  0  0  0  0  0  0  0
   -0.4855   -0.6857   -1.4542 C   0  0  2  0  0  0  0  0  0  0  0  0
   -1.7874   -0.7801   -0.5125 C   0  0  0  0  0  0  0  0  0  0  0  0
   -1.7315   -0.6688    0.8108 C   0  0  0  0  0  0  0  0  0  0  0  0
   -2.8346   -0.1730    1.5076 C   0  0  0  0  0  0  0  0  0  0  0  0
   -3.6052    0.7965    0.8721 C   0  0  0  0  0  0  0  0  0  0  0  0
   -3.9351    1.9899    1.5274 O   0  0  0  0  0  0  0  0  0  0  0  0
   -3.7085    0.7085   -0.5126 C   0  0  0  0  0  0  0  0  0  0  0  0
   -4.2478    1.8313   -1.1526 O   0  0  0  0  0  0  0  0  0  0  0  0
   -2.8525   -0.1696   -1.1680 C   0  0  0  0  0  0  0  0  0  0  0  0
    0.3728   -2.0588   -0.8280 C   0  0  2  0  0  0  0  0  0  0  0  0
   -0.8391   -2.7901   -0.2925 O   0  0  0  0  0  0  0  0  0  0  0  0
    0.7729   -1.4465    0.6410 C   0  0  0  0  0  0  0  0  0  0  0  0
  1  2  1  0
  2  3  2  0
  3  4  1  0
  4  5  1  0
  4  6  2  0
  6  7  1  0
  7  8  2  0
  7  9  1  0
  9 10  1  0
 10 11  1  1
 11 12  2  0
 12 13  1  0
 13 14  2  0
 14 15  1  0
 14 16  1  0
 16 17  1  0
 16 18  2  0
 10 19  1  0
 19 20  1  1
 19 21  1  0
  8  2  1  0
 18 11  1  0
 21  6  1  0
M  END
>  <zinc_id>  (14) 
ZINC000000119988

>  <smiles>  (14) 
Oc1cc(O)c2c(c1)O[C@H](c1ccc(O)c(O)c1)[C@H](O)C2

$$$$

     RDKit          3D

 14 14  0  0  0  0  0  0  0  0999 V2000
    4.7159    0.6202   -0.0059 C   0  0  0  0  0  0  0  0  0  0  0  0
    3.7259   -0.3950   -0.0534 O   0  0  0  0  0  0  0  0  0  0  0  0
    2.3835   -0.0923    0.0073 C   0  0  0  0  0  0  0  0  0  0  0  0
    1.9790    1.0982    0.5724 C   0  0  0  0  0  0  0  0  0  0  0  0
    0.6728    1.4842    0.3782 C   0  0  0  0  0  0  0  0  0  0  0  0
   -0.2765    0.4946    0.2941 C   0  0  0  0  0  0  0  0  0  0  0  0
   -1.6679    0.8813    0.3983 C   0  0  0  0  0  0  0  0  0  0  0  0
   -2.5907    0.2124    1.0588 C   0  0  0  0  0  0  0  0  0  0  0  0
   -3.9097   -0.0408    0.4605 C   0  0  0  0  0  0  0  0  0  0  0  0
   -4.0700   -1.2235    0.0284 O   0  0  0  0  0  0  0  0  0  0  0  0
   -4.3814    0.9664   -0.3874 O   0  0  0  0  0  0  0  0  0  0  0  0
    0.1306   -0.7125   -0.2369 C   0  0  0  0  0  0  0  0  0  0  0  0
    1.4471   -0.9851   -0.4760 C   0  0  0  0  0  0  0  0  0  0  0  0
    1.8412   -2.3079   -0.6237 O   0  0  0  0  0  0  0  0  0  0  0  0
  1  2  1  0
  2  3  1  0
  3  4  2  0
  4  5  1  0
  5  6  2  0
  6  7  1  0
  7  8  2  0
  8  9  1  0
  9 10  2  0
  9 11  1  0
  6 12  1  0
 12 13  2  0
 13 14  1  0
 13  3  1  0
M  END
>  <zinc_id>  (15) 
ZINC000000156055

>  <smiles>  (15) 
COc1ccc(/C=C/C(=O)O)cc1O

$$$$

     RDKit          3D

 14 14  0  0  0  0  0  0  0  0999 V2000
   -0.3917    2.9610    1.2351 C   0  0  0  0  0  0  0  0  0  0  0  0
   -0.9084    2.5276   -0.0210 O   0  0  0  0  0  0  0  0  0  0  0  0
   -0.4925    1.2492   -0.4070 C   0  0  0  0  0  0  0  0  0  0  0  0
    0.8650    0.9677   -0.3641 C   0  0  0  0  0  0  0  0  0  0  0  0
    1.3273   -0.3389   -0.4677 C   0  0  0  0  0  0  0  0  0  0  0  0
    2.6806   -0.5886    0.0448 C   0  0  0  0  0  0  0  0  0  0  0  0
    2.7501   -0.9022    1.2719 O   0  0  0  0  0  0  0  0  0  0  0  0
    3.6936    0.2657   -0.4005 O   0  0  0  0  0  0  0  0  0  0  0  0
    0.3797   -1.3085   -0.6252 C   0  0  0  0  0  0  0  0  0  0  0  0
   -0.9726   -1.1095   -0.3694 C   0  0  0  0  0  0  0  0  0  0  0  0
   -1.7344   -2.1414    0.1892 O   0  0  0  0  0  0  0  0  0  0  0  0
   -3.1331   -2.2218    0.0581 C   0  0  0  0  0  0  0  0  0  0  0  0
   -1.4124    0.2084   -0.3693 C   0  0  0  0  0  0  0  0  0  0  0  0
   -2.6512    0.4313    0.2251 O   0  0  0  0  0  0  0  0  0  0  0  0
  1  2  1  0
  2  3  1  0
  3  4  2  0
  4  5  1  0
  5  6  1  0
  6  7  2  0
  6  8  1  0
  5  9  2  0
  9 10  1  0
 10 11  1  0
 11 12  1  0
 10 13  2  0
 13 14  1  0
 13  3  1  0
M  END
>  <zinc_id>  (16) 
ZINC000000156386

>  <smiles>  (16) 
COc1cc(C(=O)O)cc(OC)c1O

$$$$

     RDKit          3D

 20 22  0  0  0  0  0  0  0  0999 V2000
   -2.0239   -2.2628    1.2717 O   0  0  0  0  0  0  0  0  0  0  0  0
   -1.4372   -1.5816    0.7043 C   0  0  0  0  0  0  0  0  0  0  0  0
    0.0066   -1.8604    0.4140 C   0  0  0  0  0  0  0  0  0  0  0  0
    0.7067   -0.3691    0.3358 C   0  0  1  0  0  0  0  0  0  0  0  0
    2.0124   -0.9374   -0.4384 C   0  0  0  0  0  0  0  0  0  0  0  0
    2.9830   -1.2552    0.5091 C   0  0  0  0  0  0  0  0  0  0  0  0
    4.2709   -0.7277    0.4538 C   0  0  0  0  0  0  0  0  0  0  0  0
    4.5591    0.3281   -0.4062 C   0  0  0  0  0  0  0  0  0  0  0  0
    5.2126    1.4850    0.0430 O   0  0  0  0  0  0  0  0  0  0  0  0
    3.7649    0.3424   -1.5495 C   0  0  0  0  0  0  0  0  0  0  0  0
    2.4829   -0.1993   -1.4897 C   0  0  0  0  0  0  0  0  0  0  0  0
   -0.0482   -0.0284   -0.9708 O   0  0  0  0  0  0  0  0  0  0  0  0
   -1.3588    0.3718   -0.7911 C   0  0  0  0  0  0  0  0  0  0  0  0
   -1.8382    1.6570   -1.0034 C   0  0  0  0  0  0  0  0  0  0  0  0
   -2.9495    2.1606   -0.3333 C   0  0  0  0  0  0  0  0  0  0  0  0
   -2.9102    3.4045    0.3118 O   0  0  0  0  0  0  0  0  0  0  0  0
   -3.7736    1.1945    0.2286 C   0  0  0  0  0  0  0  0  0  0  0  0
   -3.3973   -0.1397    0.3186 C   0  0  0  0  0  0  0  0  0  0  0  0
   -4.1399   -1.0507    1.0760 O   0  0  0  0  0  0  0  0  0  0  0  0
   -2.1223   -0.5315   -0.0611 C   0  0  0  0  0  0  0  0  0  0  0  0
  1  2  2  0
  2  3  1  0
  3  4  1  0
  4  5  1  6
  5  6  2  0
  6  7  1  0
  7  8  2  0
  8  9  1  0
  8 10  1  0
 10 11  2  0
  4 12  1  0
 12 13  1  0
 13 14  2  0
 14 15  1  0
 15 16  1  0
 15 17  2  0
 17 18  1  0
 18 19  1  0
 18 20  2  0
 20  2  1  0
 11  5  1  0
 20 13  1  0
M  END
>  <zinc_id>  (17) 
ZINC000000156701

>  <smiles>  (17) 
O=C1C[C@@H](c2ccc(O)cc2)Oc2cc(O)cc(O)c21

$$$$

     RDKit          3D

 12 13  0  0  0  0  0  0  0  0999 V2000
    2.7330   -1.1299   -0.7676 O   0  0  0  0  0  0  0  0  0  0  0  0
    2.2889   -0.3201    0.0970 C   0  0  0  0  0  0  0  0  0  0  0  0
    2.5040   -0.7028    1.4226 O   0  0  0  0  0  0  0  0  0  0  0  0
    1.0752    0.4076   -0.2964 C   0  0  0  0  0  0  0  0  0  0  0  0
    0.9432    1.7893   -0.2708 C   0  0  0  0  0  0  0  0  0  0  0  0
   -0.3582    2.0765   -0.0227 N   0  0  0  0  0  0  0  0  0  0  0  0
   -1.0850    0.9335    0.0272 C   0  0  0  0  0  0  0  0  0  0  0  0
   -2.3405    0.6213    0.5372 C   0  0  0  0  0  0  0  0  0  0  0  0
   -2.8629   -0.6420    0.2869 C   0  0  0  0  0  0  0  0  0  0  0  0
   -1.9747   -1.6481   -0.0731 C   0  0  0  0  0  0  0  0  0  0  0  0
   -0.7102   -1.3215   -0.5487 C   0  0  0  0  0  0  0  0  0  0  0  0
   -0.2127   -0.0637   -0.3916 C   0  0  0  0  0  0  0  0  0  0  0  0
  1  2  2  0
  2  3  1  0
  2  4  1  0
  4  5  2  0
  5  6  1  0
  6  7  1  0
  7  8  2  0
  8  9  1  0
  9 10  2  0
 10 11  1  0
 11 12  2  0
 12  4  1  0
 12  7  1  0
M  END
>  <zinc_id>  (18) 
ZINC000000158741

>  <smiles>  (18) 
O=C(O)c1c[nH]c2ccccc12

$$$$

     RDKit          3D

 11 12  0  0  0  0  0  0  0  0999 V2000
    2.5452   -1.2360   -0.8381 O   0  0  0  0  0  0  0  0  0  0  0  0
    2.4841   -0.7123    0.4650 C   0  0  0  0  0  0  0  0  0  0  0  0
    1.3232    0.2322    0.4983 C   0  0  0  0  0  0  0  0  0  0  0  0
    1.3740    1.5564    0.0891 C   0  0  0  0  0  0  0  0  0  0  0  0
    0.1153    2.0029   -0.1347 N   0  0  0  0  0  0  0  0  0  0  0  0
   -0.7284    0.9462   -0.0837 C   0  0  0  0  0  0  0  0  0  0  0  0
   -1.9544    0.7118   -0.6850 C   0  0  0  0  0  0  0  0  0  0  0  0
   -2.5937   -0.4964   -0.4530 C   0  0  0  0  0  0  0  0  0  0  0  0
   -1.8561   -1.5887   -0.0247 C   0  0  0  0  0  0  0  0  0  0  0  0
   -0.6842   -1.3137    0.6690 C   0  0  0  0  0  0  0  0  0  0  0  0
   -0.0249   -0.1024    0.4978 C   0  0  0  0  0  0  0  0  0  0  0  0
  1  2  1  0
  2  3  1  0
  3  4  2  0
  4  5  1  0
  5  6  1  0
  6  7  2  0
  7  8  1  0
  8  9  2  0
  9 10  1  0
 10 11  2  0
 11  3  1  0
 11  6  1  0
M  END
>  <zinc_id>  (19) 
ZINC000000158743

>  <smiles>  (19) 
OCc1c[nH]c2ccccc12

$$$$

     RDKit          3D

 12 12  0  0  0  0  0  0  0  0999 V2000
    3.0315   -1.0719   -1.0152 C   0  0  0  0  0  0  0  0  0  0  0  0
    3.1568    0.1051   -0.1923 N   0  0  0  0  0  0  0  0  0  0  0  0
    3.1306   -0.1972    1.2276 C   0  0  0  0  0  0  0  0  0  0  0  0
    2.2473    1.1601   -0.5557 C   0  0  0  0  0  0  0  0  0  0  0  0
    1.0226    0.6758   -1.2776 C   0  0  0  0  0  0  0  0  0  0  0  0
   -0.1685    0.5725   -0.3793 C   0  0  0  0  0  0  0  0  0  0  0  0
   -1.2888    1.3514   -0.6422 C   0  0  0  0  0  0  0  0  0  0  0  0
   -2.5580    0.8209   -0.4495 C   0  0  0  0  0  0  0  0  0  0  0  0
   -2.7586   -0.4977   -0.0611 C   0  0  0  0  0  0  0  0  0  0  0  0
   -3.7523   -1.2581   -0.6889 O   0  0  0  0  0  0  0  0  0  0  0  0
   -1.6585   -1.1078    0.5307 C   0  0  0  0  0  0  0  0  0  0  0  0
   -0.4041   -0.5530    0.4011 C   0  0  0  0  0  0  0  0  0  0  0  0
  1  2  1  0
  2  3  1  0
  2  4  1  0
  4  5  1  0
  5  6  1  0
  6  7  2  0
  7  8  1  0
  8  9  2  0
  9 10  1  0
  9 11  1  0
 11 12  2  0
 12  6  1  0
M  END
>  <zinc_id>  (20) 
ZINC000000160784

>  <smiles>  (20) 
CN(C)CCc1ccc(O)cc1

$$$$

     RDKit          3D

 11 11  0  0  0  0  0  0  0  0999 V2000
    3.3911   -0.0016   -1.6818 O   0  0  0  0  0  0  0  0  0  0  0  0
    3.1661    0.1510   -0.4433 C   0  0  0  0  0  0  0  0  0  0  0  0
    4.0094    1.0640    0.1982 O   0  0  0  0  0  0  0  0  0  0  0  0
    1.8333    0.0498    0.1077 C   0  0  0  0  0  0  0  0  0  0  0  0
    0.6337    0.1190    0.2906 C   0  0  0  0  0  0  0  0  0  0  0  0
   -0.7936   -0.0043    0.1494 C   0  0  0  0  0  0  0  0  0  0  0  0
   -1.5565   -0.4837    1.2072 C   0  0  0  0  0  0  0  0  0  0  0  0
   -2.9281   -0.6365    1.0436 C   0  0  0  0  0  0  0  0  0  0  0  0
   -3.5365   -0.4757   -0.1952 C   0  0  0  0  0  0  0  0  0  0  0  0
   -2.7952    0.2133   -1.1483 C   0  0  0  0  0  0  0  0  0  0  0  0
   -1.4236    0.0046   -1.0893 C   0  0  0  0  0  0  0  0  0  0  0  0
  1  2  2  0
  2  3  1  0
  2  4  1  0
  4  5  3  0
  5  6  1  0
  6  7  2  0
  7  8  1  0
  8  9  2  0
  9 10  1  0
 10 11  2  0
 11  6  1  0
M  END
>  <zinc_id>  (21) 
ZINC000000332026

>  <smiles>  (21) 
O=C(O)C#Cc1ccccc1

$$$$

     RDKit          3D

 23 25  0  0  0  0  0  0  0  0999 V2000
   -4.0754    2.0345    1.9125 C   0  0  0  0  0  0  0  0  0  0  0  0
   -3.8524    2.1129    0.5061 O   0  0  0  0  0  0  0  0  0  0  0  0
   -3.3972    0.9797   -0.1619 C   0  0  0  0  0  0  0  0  0  0  0  0
   -2.0486    0.7378   -0.3859 C   0  0  0  0  0  0  0  0  0  0  0  0
   -1.6060   -0.5083   -0.8127 C   0  0  0  0  0  0  0  0  0  0  0  0
   -0.2014   -0.7896   -0.4838 C   0  0  0  0  0  0  0  0  0  0  0  0
    0.7294   -0.3299   -1.2979 O   0  0  0  0  0  0  0  0  0  0  0  0
    1.9616   -0.0905   -0.9058 C   0  0  0  0  0  0  0  0  0  0  0  0
    2.8260    0.7103   -1.6416 C   0  0  0  0  0  0  0  0  0  0  0  0
    4.0062    1.1652   -1.0764 C   0  0  0  0  0  0  0  0  0  0  0  0
    4.9265    1.7243   -1.9585 O   0  0  0  0  0  0  0  0  0  0  0  0
    4.4953    0.4403   -0.0063 C   0  0  0  0  0  0  0  0  0  0  0  0
    3.6949   -0.3794    0.7719 C   0  0  0  0  0  0  0  0  0  0  0  0
    3.9498   -0.5312    2.1360 O   0  0  0  0  0  0  0  0  0  0  0  0
    2.4123   -0.6128    0.2964 C   0  0  0  0  0  0  0  0  0  0  0  0
    1.4415   -1.0290    1.1924 C   0  0  0  0  0  0  0  0  0  0  0  0
    1.7148   -1.5558    2.2909 O   0  0  0  0  0  0  0  0  0  0  0  0
    0.0936   -0.9320    0.8669 C   0  0  0  0  0  0  0  0  0  0  0  0
   -0.8563   -0.6313    1.8488 O   0  0  0  0  0  0  0  0  0  0  0  0
   -2.4911   -1.5768   -0.8372 C   0  0  0  0  0  0  0  0  0  0  0  0
   -3.8518   -1.2945   -0.8613 C   0  0  0  0  0  0  0  0  0  0  0  0
   -4.2737    0.0050   -0.6169 C   0  0  0  0  0  0  0  0  0  0  0  0
   -5.5978    0.3509   -0.7757 O   0  0  0  0  0  0  0  0  0  0  0  0
  1  2  1  0
  2  3  1  0
  3  4  2  0
  4  5  1  0
  5  6  1  0
  6  7  1  0
  7  8  1  0
  8  9  2  0
  9 10  1  0
 10 11  1  0
 10 12  2  0
 12 13  1  0
 13 14  1  0
 13 15  2  0
 15 16  1  0
 16 17  2  0
 16 18  1  0
 18 19  1  0
  5 20  2  0
 20 21  1  0
 21 22  2  0
 22 23  1  0
 22  3  1  0
 18  6  2  0
 15  8  1  0
M  END
>  <zinc_id>  (22) 
ZINC000000517261

>  <smiles>  (22) 
COc1cc(-c2oc3cc(O)cc(O)c3c(=O)c2O)ccc1O

$$$$

     RDKit          3D

  8  7  0  0  0  0  0  0  0  0999 V2000
    1.0802   -0.7042    1.3124 C   0  0  0  0  0  0  0  0  0  0  0  0
    1.2972    0.4721    0.1856 C   0  0  1  0  0  0  0  0  0  0  0  0
    2.3257   -0.3577   -0.5499 O   0  0  0  0  0  0  0  0  0  0  0  0
    0.0334   -0.0934   -0.8434 C   0  0  2  0  0  0  0  0  0  0  0  0
   -0.2635    1.3736   -1.3224 N   0  0  0  0  0  0  0  0  0  0  0  0
   -1.0581   -0.1170    0.3273 C   0  0  0  0  0  0  0  0  0  0  0  0
   -1.7748    0.8208    0.5737 O   0  0  0  0  0  0  0  0  0  0  0  0
   -1.6402   -1.3942    0.3168 O   0  0  0  0  0  0  0  0  0  0  0  0
  2  1  1  1
  2  3  1  0
  2  4  1  0
  4  5  1  6
  4  6  1  0
  6  7  2  0
  6  8  1  0
M  END
>  <zinc_id>  (23) 
ZINC000000895103

>  <smiles>  (23) 
C[C@@H](O)[C@H](N)C(=O)O

$$$$

     RDKit          3D

  6  5  0  0  0  0  0  0  0  0999 V2000
    1.0706   -0.7050   -0.9247 C   0  0  0  0  0  0  0  0  0  0  0  0
    0.7338   -0.0380    0.2960 C   0  0  0  0  0  0  0  0  0  0  0  0
    1.4224    0.7261    0.9693 O   0  0  0  0  0  0  0  0  0  0  0  0
   -0.8524    0.4033    0.4813 C   0  0  2  0  0  0  0  0  0  0  0  0
   -1.3662   -1.1776    0.1941 C   0  0  0  0  0  0  0  0  0  0  0  0
   -1.0082    0.7912   -1.0160 O   0  0  0  0  0  0  0  0  0  0  0  0
  1  2  1  0
  2  3  2  0
  4  2  1  6
  4  5  1  0
  4  6  1  0
M  END
>  <zinc_id>  (24) 
ZINC000000895238

>  <smiles>  (24) 
CC(=O)[C@H](C)O

$$$$

     RDKit          3D

  6  5  0  0  0  0  0  0  0  0999 V2000
    1.2427    0.6786   -0.7890 C   0  0  0  0  0  0  0  0  0  0  0  0
    0.6788   -0.3608   -0.0105 C   0  0  0  0  0  0  0  0  0  0  0  0
    1.3009   -0.8445    0.9351 O   0  0  0  0  0  0  0  0  0  0  0  0
   -0.8771   -0.3373    0.4469 C   0  0  1  0  0  0  0  0  0  0  0  0
   -0.9812    1.3133    0.4090 C   0  0  0  0  0  0  0  0  0  0  0  0
   -1.3641   -0.4493   -0.9915 O   0  0  0  0  0  0  0  0  0  0  0  0
  1  2  1  0
  2  3  2  0
  4  2  1  6
  4  5  1  0
  4  6  1  0
M  END
>  <zinc_id>  (25) 
ZINC000000895240

>  <smiles>  (25) 
CC(=O)[C@@H](C)O

$$$$

     RDKit          3D

 12 12  0  0  0  0  0  0  0  0999 V2000
    2.4829    0.0742   -0.3912 O   0  0  0  0  0  0  0  0  0  0  0  0
    2.0282   -0.5823   -0.9970 C   0  0  0  0  0  0  0  0  0  0  0  0
    0.6248    0.2317   -1.3323 C   0  0  2  0  0  0  0  0  0  0  0  0
    0.7078    0.9893   -0.0010 O   0  0  0  0  0  0  0  0  0  0  0  0
   -0.6586    1.7066   -0.0590 C   0  0  2  0  0  0  0  0  0  0  0  0
   -0.2856    2.5561    1.1996 O   0  0  0  0  0  0  0  0  0  0  0  0
   -1.4813    0.5233    0.9511 C   0  0  1  0  0  0  0  0  0  0  0  0
   -2.2346   -0.0129   -0.2326 O   0  0  0  0  0  0  0  0  0  0  0  0
   -0.1672   -0.6040    0.9145 C   0  0  1  0  0  0  0  0  0  0  0  0
   -1.0618   -1.7159    1.3736 O   0  0  0  0  0  0  0  0  0  0  0  0
   -0.4568   -1.0072   -0.7470 C   0  0  2  0  0  0  0  0  0  0  0  0
    0.5022   -2.1589   -0.6787 O   0  0  0  0  0  0  0  0  0  0  0  0
  1  2  1  0
  3  2  1  1
  3  4  1  0
  4  5  1  0
  5  6  1  1
  5  7  1  0
  7  8  1  6
  7  9  1  0
  9 10  1  1
  9 11  1  0
 11 12  1  1
 11  3  1  0
M  END
>  <zinc_id>  (26) 
ZINC000000896168

>  <smiles>  (26) 
OC[C@@H]1O[C@H](O)[C@@H](O)[C@@H](O)[C@@H]1O

$$$$

     RDKit          3D

 12 12  0  0  0  0  0  0  0  0999 V2000
    2.7385    0.1825    0.9010 O   0  0  0  0  0  0  0  0  0  0  0  0
    1.4660   -0.1033    0.9392 C   0  0  0  0  0  0  0  0  0  0  0  0
    1.2673   -0.2539   -0.6952 C   0  0  2  0  0  0  0  0  0  0  0  0
    0.5062    1.0221   -0.9619 O   0  0  0  0  0  0  0  0  0  0  0  0
   -0.0731    1.4195    0.3804 C   0  0  1  0  0  0  0  0  0  0  0  0
   -0.6132    2.7392   -0.1742 O   0  0  0  0  0  0  0  0  0  0  0  0
   -1.6086    0.6375    0.1003 C   0  0  1  0  0  0  0  0  0  0  0  0
   -1.4380    0.3149   -1.3498 O   0  0  0  0  0  0  0  0  0  0  0  0
   -0.8238   -0.7259    0.7744 C   0  0  1  0  0  0  0  0  0  0  0  0
   -1.9977   -1.6329    0.5110 O   0  0  0  0  0  0  0  0  0  0  0  0
   -0.0935   -1.3142   -0.6435 C   0  0  2  0  0  0  0  0  0  0  0  0
    0.6700   -2.2855    0.2184 O   0  0  0  0  0  0  0  0  0  0  0  0
  1  2  1  0
  3  2  1  1
  3  4  1  0
  4  5  1  0
  5  6  1  6
  5  7  1  0
  7  8  1  6
  7  9  1  0
  9 10  1  6
  9 11  1  0
 11 12  1  1
 11  3  1  0
M  END
>  <zinc_id>  (27) 
ZINC000000896169

>  <smiles>  (27) 
OC[C@@H]1O[C@@H](O)[C@@H](O)[C@@H](O)[C@@H]1O

$$$$

     RDKit          3D

 10 10  0  0  0  0  0  0  0  0999 V2000
    3.4173   -0.5267   -0.1480 C   0  0  0  0  0  0  0  0  0  0  0  0
    2.0365    0.0084   -0.3296 C   0  0  0  0  0  0  0  0  0  0  0  0
    1.3239   -0.1555   -1.4373 C   0  0  0  0  0  0  0  0  0  0  0  0
   -0.1020   -0.5258   -1.3343 C   0  0  0  0  0  0  0  0  0  0  0  0
   -0.7490   -0.0290   -0.1092 C   0  0  0  0  0  0  0  0  0  0  0  0
   -2.2081    0.0214    0.1062 C   0  0  0  0  0  0  0  0  0  0  0  0
   -2.4401   -0.5352    1.5081 C   0  0  0  0  0  0  0  0  0  0  0  0
   -2.6809    1.4698    0.1696 C   0  0  0  0  0  0  0  0  0  0  0  0
   -0.0061    0.4715    0.8586 C   0  0  0  0  0  0  0  0  0  0  0  0
    1.4084    0.8550    0.7159 C   0  0  0  0  0  0  0  0  0  0  0  0
  1  2  1  0
  2  3  2  0
  3  4  1  0
  4  5  1  0
  5  6  1  0
  6  7  1  0
  6  8  1  0
  5  9  2  0
  9 10  1  0
 10  2  1  0
M  END
>  <zinc_id>  (28) 
ZINC000000967594

>  <smiles>  (28) 
CC1=CCC(C(C)C)=CC1

$$$$

     RDKit          3D

 11 11  0  0  0  0  0  0  0  0999 V2000
    3.5523   -0.0474    0.0643 C   0  0  0  0  0  0  0  0  0  0  0  0
    2.2261   -0.2264    0.0505 C   0  0  0  0  0  0  0  0  0  0  0  0
    1.5476   -0.0450    1.1694 C   0  0  0  0  0  0  0  0  0  0  0  0
    0.1052    0.2933    1.2335 C   0  0  0  0  0  0  0  0  0  0  0  0
   -0.2597    0.6308   -0.3475 C   0  0  2  0  0  0  0  0  0  0  0  0
   -1.8753    0.3401   -0.1641 C   0  0  0  0  0  0  0  0  0  0  0  0
   -2.0683   -0.6854    0.8593 C   0  0  0  0  0  0  0  0  0  0  0  0
   -2.5184    1.6640    0.0395 C   0  0  0  0  0  0  0  0  0  0  0  0
   -2.2558   -0.1963   -1.4057 O   0  0  0  0  0  0  0  0  0  0  0  0
    0.0310   -0.9332   -0.8118 C   0  0  0  0  0  0  0  0  0  0  0  0
    1.5152   -0.7944   -1.1402 C   0  0  0  0  0  0  0  0  0  0  0  0
  1  2  1  0
  2  3  2  0
  3  4  1  0
  4  5  1  0
  5  6  1  1
  6  7  1  0
  6  8  1  0
  6  9  1  0
  5 10  1  0
 10 11  1  0
 11  2  1  0
M  END
>  <zinc_id>  (29) 
ZINC000000967799

>  <smiles>  (29) 
CC1=CC[C@H](C(C)(C)O)CC1

$$$$

     RDKit          3D

 10 10  0  0  0  0  0  0  0  0999 V2000
   -3.1199    1.1239   -0.0857 C   0  0  0  0  0  0  0  0  0  0  0  0
   -2.0681    0.0957   -0.3666 C   0  0  0  0  0  0  0  0  0  0  0  0
   -1.5179   -0.6550    0.6664 C   0  0  0  0  0  0  0  0  0  0  0  0
   -0.1536   -0.9145    0.7069 C   0  0  0  0  0  0  0  0  0  0  0  0
    0.6998   -0.4596   -0.2538 C   0  0  0  0  0  0  0  0  0  0  0  0
    2.0245    0.0398    0.0506 C   0  0  0  0  0  0  0  0  0  0  0  0
    2.5719   -0.1471    1.3883 C   0  0  0  0  0  0  0  0  0  0  0  0
    2.7527    0.7932   -0.9584 C   0  0  0  0  0  0  0  0  0  0  0  0
    0.0958   -0.0122   -1.4246 C   0  0  0  0  0  0  0  0  0  0  0  0
   -1.2851    0.1358   -1.5146 C   0  0  0  0  0  0  0  0  0  0  0  0
  1  2  1  0
  2  3  2  0
  3  4  1  0
  4  5  2  0
  5  6  1  0
  6  7  1  0
  6  8  1  0
  5  9  1  0
  9 10  2  0
 10  2  1  0
M  END
>  <zinc_id>  (30) 
ZINC000000968246

>  <smiles>  (30) 
Cc1ccc(C(C)C)cc1

$$$$

     RDKit          3D

 11 11  0  0  0  0  0  0  0  0999 V2000
   -2.9686   -0.2877    1.1896 C   0  0  0  0  0  0  0  0  0  0  0  0
   -2.4529    0.1648   -0.1688 C   0  0  0  0  0  0  0  0  0  0  0  0
   -2.3854    1.6852   -0.1021 C   0  0  0  0  0  0  0  0  0  0  0  0
   -1.1049   -0.4180   -0.4558 C   0  0  0  0  0  0  0  0  0  0  0  0
   -0.5166   -1.3565    0.3735 C   0  0  0  0  0  0  0  0  0  0  0  0
    0.8630   -1.3740    0.5366 C   0  0  0  0  0  0  0  0  0  0  0  0
    1.6681   -0.3973   -0.0345 C   0  0  0  0  0  0  0  0  0  0  0  0
    2.7851    0.2010    0.7088 C   0  0  0  0  0  0  0  0  0  0  0  0
    3.2214    1.3499    0.4530 O   0  0  0  0  0  0  0  0  0  0  0  0
    1.1339    0.2224   -1.1588 C   0  0  0  0  0  0  0  0  0  0  0  0
   -0.2429    0.2102   -1.3416 C   0  0  0  0  0  0  0  0  0  0  0  0
  1  2  1  0
  2  3  1  0
  2  4  1  0
  4  5  2  0
  5  6  1  0
  6  7  2  0
  7  8  1  0
  8  9  2  0
  7 10  1  0
 10 11  2  0
 11  4  1  0
M  END
>  <zinc_id>  (31) 
ZINC000000968248

>  <smiles>  (31) 
CC(C)c1ccc(C=O)cc1

$$$$

     RDKit          3D

 11 11  0  0  0  0  0  0  0  0999 V2000
   -1.9448   -0.9640    1.1692 C   0  0  0  0  0  0  0  0  0  0  0  0
   -2.0747   -0.0963    0.2801 C   0  0  0  0  0  0  0  0  0  0  0  0
   -3.2525    0.1239   -0.5745 C   0  0  0  0  0  0  0  0  0  0  0  0
   -0.7323    0.1540   -0.6072 C   0  0  2  0  0  0  0  0  0  0  0  0
   -0.1307   -1.3346   -0.3054 C   0  0  0  0  0  0  0  0  0  0  0  0
    1.3054   -1.2481   -0.8011 C   0  0  0  0  0  0  0  0  0  0  0  0
    2.1200   -0.4525    0.4003 C   0  0  1  0  0  0  0  0  0  0  0  0
    3.4634   -0.2955   -0.5556 C   0  0  0  0  0  0  0  0  0  0  0  0
    1.5197    1.0083   -0.1035 C   0  0  0  0  0  0  0  0  0  0  0  0
    0.0968    0.8505    0.7569 C   0  0  1  0  0  0  0  0  0  0  0  0
   -0.3705    2.2542    0.3407 O   0  0  0  0  0  0  0  0  0  0  0  0
  1  2  1  0
  2  3  1  0
  4  2  1  1
  4  5  1  0
  5  6  1  0
  6  7  1  0
  7  8  1  6
  7  9  1  0
  9 10  1  0
 10 11  1  6
 10  4  1  0
M  END
>  <zinc_id>  (32) 
ZINC000001482164

>  <smiles>  (32) 
CC(C)[C@@H]1CC[C@@H](C)C[C@H]1O

$$$$

     RDKit          3D

 11 11  0  0  0  0  0  0  0  0999 V2000
   -3.1560   -0.6759   -0.3470 C   0  0  0  0  0  0  0  0  0  0  0  0
   -2.4809   -0.1157   -0.4018 C   0  0  0  0  0  0  0  0  0  0  0  0
   -2.4820    1.3608   -0.2776 C   0  0  0  0  0  0  0  0  0  0  0  0
   -1.0570   -0.8598   -0.4626 C   0  0  2  0  0  0  0  0  0  0  0  0
   -0.5096   -0.0982    0.8756 C   0  0  0  0  0  0  0  0  0  0  0  0
    0.9286   -0.4398    0.8696 C   0  0  0  0  0  0  0  0  0  0  0  0
    1.6659   -0.3231   -0.2174 C   0  0  0  0  0  0  0  0  0  0  0  0
    3.0716   -0.0244   -0.0188 C   0  0  0  0  0  0  0  0  0  0  0  0
    3.3921    1.1997    0.0400 O   0  0  0  0  0  0  0  0  0  0  0  0
    1.0228   -0.2693   -1.5680 C   0  0  0  0  0  0  0  0  0  0  0  0
   -0.3955    0.2457   -1.4690 C   0  0  0  0  0  0  0  0  0  0  0  0
  1  2  2  0
  2  3  1  0
  4  2  1  1
  4  5  1  0
  5  6  1  0
  6  7  2  0
  7  8  1  0
  8  9  2  0
  7 10  1  0
 10 11  1  0
 11  4  1  0
M  END
>  <zinc_id>  (33) 
ZINC000001529472

>  <smiles>  (33) 
C=C(C)[C@@H]1CC=C(C=O)CC1

$$$$

     RDKit          3D

 11 11  0  0  0  0  0  0  0  0999 V2000
   -3.1877   -0.0681   -1.0539 C   0  0  0  0  0  0  0  0  0  0  0  0
   -2.1762    0.6714   -0.6743 C   0  0  0  0  0  0  0  0  0  0  0  0
   -2.4984    2.0210   -0.1248 C   0  0  0  0  0  0  0  0  0  0  0  0
   -1.2464   -0.2218    0.3293 C   0  0  1  0  0  0  0  0  0  0  0  0
   -0.5822   -1.0485   -0.9488 C   0  0  0  0  0  0  0  0  0  0  0  0
    0.7087   -1.5658   -0.4328 C   0  0  0  0  0  0  0  0  0  0  0  0
    1.5878   -0.8525    0.2406 C   0  0  0  0  0  0  0  0  0  0  0  0
    2.9540   -0.5935   -0.2362 C   0  0  0  0  0  0  0  0  0  0  0  0
    3.4650    0.5621   -0.1902 O   0  0  0  0  0  0  0  0  0  0  0  0
    1.0062    0.1848    1.1511 C   0  0  0  0  0  0  0  0  0  0  0  0
   -0.0310    0.9110    0.2986 C   0  0  0  0  0  0  0  0  0  0  0  0
  1  2  2  0
  2  3  1  0
  4  2  1  6
  4  5  1  0
  5  6  1  0
  6  7  2  0
  7  8  1  0
  8  9  2  0
  7 10  1  0
 10 11  1  0
 11  4  1  0
M  END
>  <zinc_id>  (34) 
ZINC000001529473

>  <smiles>  (34) 
C=C(C)[C@H]1CC=C(C=O)CC1

$$$$

     RDKit          3D

 15 15  0  0  0  0  0  0  0  0999 V2000
   -2.5689    0.7904   -1.0146 C   0  0  0  0  0  0  0  0  0  0  0  0
   -1.5683    0.7298   -0.7447 N   0  0  0  0  0  0  0  0  0  0  0  0
   -0.7796    1.1571   -1.8535 C   0  0  0  0  0  0  0  0  0  0  0  0
   -1.4181    1.4196    0.4635 C   0  0  0  0  0  0  0  0  0  0  0  0
   -1.2353   -0.7913   -0.4877 C   0  0  1  0  0  0  0  0  0  0  0  0
   -0.1340   -0.5100    0.7041 C   0  0  0  0  0  0  0  0  0  0  0  0
    1.1748   -0.3388   -0.0074 C   0  0  0  0  0  0  0  0  0  0  0  0
    2.1912   -1.2853    0.0213 C   0  0  0  0  0  0  0  0  0  0  0  0
    3.4001   -0.6875    0.1323 N   0  0  0  0  0  0  0  0  0  0  0  0
    3.1546    0.6193    0.2824 C   0  0  0  0  0  0  0  0  0  0  0  0
    4.2774    1.9544    0.7223 S   0  0  0  0  0  0  0  0  0  0  0  0
    1.8482    0.8382   -0.0046 N   0  0  0  0  0  0  0  0  0  0  0  0
   -2.4415   -0.9507    0.5819 C   0  0  0  0  0  0  0  0  0  0  0  0
   -2.2259   -1.9839    1.2891 O   0  0  0  0  0  0  0  0  0  0  0  0
   -3.6748   -0.9614   -0.0844 O   0  0  0  0  0  0  0  0  0  0  0  0
  1  2  1  0
  2  3  1  0
  2  4  1  0
  5  2  1  6
  5  6  1  0
  6  7  1  0
  7  8  2  0
  8  9  1  0
  9 10  1  0
 10 11  1  0
 10 12  2  0
  5 13  1  0
 13 14  2  0
 13 15  1  0
 12  7  1  0
M  CHG  1   2   1
M  END
>  <zinc_id>  (35) 
ZINC000001530224

>  <smiles>  (35) 
C[N+](C)(C)[C@@H](Cc1c[nH]c(S)n1)C(=O)O

$$$$

     RDKit          3D

 21 21  0  0  0  0  0  0  0  0999 V2000
    6.5839    1.9840   -0.1104 C   0  0  0  0  0  0  0  0  0  0  0  0
    6.5660    1.5972    0.0660 C   0  0  0  0  0  0  0  0  0  0  0  0
    5.5337    1.0518    1.0436 C   0  0  0  0  0  0  0  0  0  0  0  0
    5.0576   -0.3115    0.6263 C   0  0  0  0  0  0  0  0  0  0  0  0
    3.5763   -0.3152    0.2578 C   0  0  0  0  0  0  0  0  0  0  0  0
    2.9365   -1.4577    1.2819 C   0  0  2  0  0  0  0  0  0  0  0  0
    3.9370   -2.5121    0.8049 O   0  0  0  0  0  0  0  0  0  0  0  0
    1.8203   -1.9234    0.1427 C   0  0  0  0  0  0  0  0  0  0  0  0
    0.9176   -0.7279    0.0665 C   0  0  0  0  0  0  0  0  0  0  0  0
    1.1130    0.2995    0.6735 O   0  0  0  0  0  0  0  0  0  0  0  0
   -0.1183   -0.7699   -0.9874 C   0  0  0  0  0  0  0  0  0  0  0  0
   -0.9423    0.5000   -1.0375 C   0  0  0  0  0  0  0  0  0  0  0  0
   -2.1329    0.3877   -0.1445 C   0  0  0  0  0  0  0  0  0  0  0  0
   -2.0967   -0.5128    0.9130 C   0  0  0  0  0  0  0  0  0  0  0  0
   -3.3009   -0.9115    1.4774 C   0  0  0  0  0  0  0  0  0  0  0  0
   -4.4973   -0.4928    0.9179 C   0  0  0  0  0  0  0  0  0  0  0  0
   -5.6484   -1.2813    1.0050 O   0  0  0  0  0  0  0  0  0  0  0  0
   -4.5181    0.5896    0.0528 C   0  0  0  0  0  0  0  0  0  0  0  0
   -5.7029    1.1606   -0.3700 O   0  0  0  0  0  0  0  0  0  0  0  0
   -5.7857    2.5754   -0.4979 C   0  0  0  0  0  0  0  0  0  0  0  0
   -3.2984    1.0701   -0.3648 C   0  0  0  0  0  0  0  0  0  0  0  0
  1  2  1  0
  2  3  1  0
  3  4  1  0
  4  5  1  0
  6  5  1  6
  6  7  1  0
  6  8  1  0
  8  9  1  0
  9 10  2  0
  9 11  1  0
 11 12  1  0
 12 13  1  0
 13 14  2  0
 14 15  1  0
 15 16  2  0
 16 17  1  0
 16 18  1  0
 18 19  1  0
 19 20  1  0
 18 21  2  0
 21 13  1  0
M  END
>  <zinc_id>  (36) 
ZINC000001531846

>  <smiles>  (36) 
CCCCC[C@H](O)CC(=O)CCc1ccc(O)c(OC)c1

$$$$

     RDKit          3D

 10  9  0  0  0  0  0  0  0  0999 V2000
    4.1824    0.0452   -0.8881 N   0  0  0  0  0  0  0  0  0  0  0  0
    2.9849   -0.5664   -0.5667 C   0  0  0  0  0  0  0  0  0  0  0  0
    1.7674    0.3133   -0.6450 C   0  0  0  0  0  0  0  0  0  0  0  0
    0.9301    0.2572    0.4695 C   0  0  0  0  0  0  0  0  0  0  0  0
   -0.2129   -0.2684    0.9369 C   0  0  0  0  0  0  0  0  0  0  0  0
   -1.2785   -0.9455   -0.1057 C   0  0  2  0  0  0  0  0  0  0  0  0
   -0.6842   -0.2172   -1.3754 N   0  0  0  0  0  0  0  0  0  0  0  0
   -2.3906    0.2023    0.1470 C   0  0  0  0  0  0  0  0  0  0  0  0
   -2.0292    1.3761    0.0995 O   0  0  0  0  0  0  0  0  0  0  0  0
   -3.2696   -0.1965    1.1288 O   0  0  0  0  0  0  0  0  0  0  0  0
  1  2  1  0
  2  3  1  0
  3  4  1  0
  4  5  1  0
  6  5  1  1
  6  7  1  0
  6  8  1  0
  8  9  2  0
  8 10  1  0
M  END
>  <zinc_id>  (37) 
ZINC000001532522

>  <smiles>  (37) 
NCCCC[C@H](N)C(=O)O

$$$$

     RDKit          3D

 10 10  0  0  0  0  0  0  0  0999 V2000
    3.5157    0.5344   -0.8410 O   0  0  0  0  0  0  0  0  0  0  0  0
    3.2889   -0.3069    0.0761 C   0  0  0  0  0  0  0  0  0  0  0  0
    1.9484   -0.4606    0.6556 C   0  0  0  0  0  0  0  0  0  0  0  0
    0.9551   -0.9761   -0.0688 C   0  0  0  0  0  0  0  0  0  0  0  0
   -0.3956   -0.4006   -0.0247 C   0  0  0  0  0  0  0  0  0  0  0  0
   -1.4760   -1.1242    0.4178 C   0  0  0  0  0  0  0  0  0  0  0  0
   -2.7084   -0.5050    0.5824 C   0  0  0  0  0  0  0  0  0  0  0  0
   -2.7936    0.8583    0.3366 C   0  0  0  0  0  0  0  0  0  0  0  0
   -1.6573    1.5723   -0.0251 C   0  0  0  0  0  0  0  0  0  0  0  0
   -0.6773    0.8083   -0.6505 C   0  0  0  0  0  0  0  0  0  0  0  0
  1  2  2  0
  2  3  1  0
  3  4  2  0
  4  5  1  0
  5  6  2  0
  6  7  1  0
  7  8  2  0
  8  9  1  0
  9 10  2  0
 10  5  1  0
M  END
>  <zinc_id>  (38) 
ZINC000001532777

>  <smiles>  (38) 
O=C/C=C/c1ccccc1

$$$$

     RDKit          3D

 22 22  0  0  0  0  0  0  0  0999 V2000
   -5.6671   -2.6091   -0.6433 C   0  0  0  0  0  0  0  0  0  0  0  0
   -4.9568   -2.2304    0.5076 O   0  0  0  0  0  0  0  0  0  0  0  0
   -3.9337   -1.3016    0.5089 C   0  0  0  0  0  0  0  0  0  0  0  0
   -2.6469   -1.6384    0.8962 C   0  0  0  0  0  0  0  0  0  0  0  0
   -1.6363   -0.6923    0.8222 C   0  0  0  0  0  0  0  0  0  0  0  0
   -0.2638   -1.1476    0.6005 C   0  0  0  0  0  0  0  0  0  0  0  0
    0.7721   -0.3591    0.7660 C   0  0  0  0  0  0  0  0  0  0  0  0
    1.9470   -0.3562   -0.1136 C   0  0  0  0  0  0  0  0  0  0  0  0
    1.9414   -0.9297   -1.2442 O   0  0  0  0  0  0  0  0  0  0  0  0
    2.7589    0.7802   -0.0347 O   0  0  0  0  0  0  0  0  0  0  0  0
    3.6262    1.1670   -1.0721 C   0  0  0  0  0  0  0  0  0  0  0  0
    4.9085    0.3821   -1.1053 C   0  0  0  0  0  0  0  0  0  0  0  0
    5.8067    0.6979   -0.0253 N   0  0  0  0  0  0  0  0  0  0  0  0
    6.9648    1.4381   -0.5008 C   0  0  0  0  0  0  0  0  0  0  0  0
    5.1177    1.4020    1.0392 C   0  0  0  0  0  0  0  0  0  0  0  0
    6.3233   -0.5360    0.5617 C   0  0  0  0  0  0  0  0  0  0  0  0
   -2.0366    0.6189    0.6057 C   0  0  0  0  0  0  0  0  0  0  0  0
   -3.2453    0.9449    0.0339 C   0  0  0  0  0  0  0  0  0  0  0  0
   -3.4186    2.0467   -0.8099 O   0  0  0  0  0  0  0  0  0  0  0  0
   -2.6699    2.0485   -2.0232 C   0  0  0  0  0  0  0  0  0  0  0  0
   -4.2415   -0.0210    0.1101 C   0  0  0  0  0  0  0  0  0  0  0  0
   -5.4502    0.2953   -0.5161 O   0  0  0  0  0  0  0  0  0  0  0  0
  1  2  1  0
  2  3  1  0
  3  4  2  0
  4  5  1  0
  5  6  1  0
  6  7  2  0
  7  8  1  0
  8  9  2  0
  8 10  1  0
 10 11  1  0
 11 12  1  0
 12 13  1  0
 13 14  1  0
 13 15  1  0
 13 16  1  0
  5 17  2  0
 17 18  1  0
 18 19  1  0
 19 20  1  0
 18 21  2  0
 21 22  1  0
 21  3  1  0
M  CHG  1  13   1
M  END
>  <zinc_id>  (39) 
ZINC000001532786

>  <smiles>  (39) 
COc1cc(/C=C/C(=O)OCC[N+](C)(C)C)cc(OC)c1O

$$$$

     RDKit          3D

 28 31  0  0  0  0  0  0  0  0999 V2000
    0.5094    1.7440    0.8045 C   0  0  0  0  0  0  0  0  0  0  0  0
    0.9302    1.0056   -0.1163 C   0  0  0  0  0  0  0  0  0  0  0  0
    1.8160    1.6136   -1.0657 C   0  0  0  0  0  0  0  0  0  0  0  0
    3.3133    1.5438   -0.7639 C   0  0  0  0  0  0  0  0  0  0  0  0
    3.1655    0.7726    0.6821 C   0  0  2  0  0  0  0  0  0  0  0  0
    4.7063    0.5431    0.9906 C   0  0  0  0  0  0  0  0  0  0  0  0
    4.8560    0.1881    2.4516 C   0  0  0  0  0  0  0  0  0  0  0  0
    5.3686    1.8676    0.6764 C   0  0  0  0  0  0  0  0  0  0  0  0
    5.6149   -0.4810    0.1581 C   0  0  2  0  0  0  0  0  0  0  0  0
    5.3550    0.1949   -1.1870 O   0  0  0  0  0  0  0  0  0  0  0  0
    4.5562   -1.7259   -0.0874 C   0  0  0  0  0  0  0  0  0  0  0  0
    3.4150   -1.5702    0.8675 C   0  0  0  0  0  0  0  0  0  0  0  0
    2.6787   -0.6241   -0.0004 C   0  0  2  0  0  0  0  0  0  0  0  0
    2.7189   -0.7542   -1.4031 C   0  0  0  0  0  0  0  0  0  0  0  0
    1.1429   -0.4513    0.5288 C   0  0  2  0  0  0  0  0  0  0  0  0
    0.4663   -1.2356   -0.7368 C   0  0  0  0  0  0  0  0  0  0  0  0
   -0.6557   -0.5569   -1.1359 O   0  0  0  0  0  0  0  0  0  0  0  0
   -1.9812   -0.8263   -0.8815 C   0  0  0  0  0  0  0  0  0  0  0  0
   -2.7087   -1.7680   -1.6044 C   0  0  0  0  0  0  0  0  0  0  0  0
   -4.0765   -1.6277   -1.8160 C   0  0  0  0  0  0  0  0  0  0  0  0
   -4.7624   -0.5874   -1.2469 C   0  0  0  0  0  0  0  0  0  0  0  0
   -6.1425   -0.5158   -1.1684 C   0  0  0  0  0  0  0  0  0  0  0  0
   -6.6957    0.1091   -0.0566 C   0  0  0  0  0  0  0  0  0  0  0  0
   -5.9106    0.7811    0.8728 C   0  0  0  0  0  0  0  0  0  0  0  0
   -6.2149    0.6929    2.1012 O   0  0  0  0  0  0  0  0  0  0  0  0
   -4.6722    1.0179    0.4974 O   0  0  0  0  0  0  0  0  0  0  0  0
   -4.0770    0.3338   -0.4644 C   0  0  0  0  0  0  0  0  0  0  0  0
   -2.7159    0.3163   -0.5709 C   0  0  0  0  0  0  0  0  0  0  0  0
  1  2  2  0
  2  3  1  0
  3  4  1  0
  5  4  1  6
  5  6  1  0
  6  7  1  0
  6  8  1  0
  6  9  1  0
  9 10  1  6
  9 11  1  0
 11 12  1  0
 12 13  1  0
 13 14  1  6
 13 15  1  0
 15 16  1  6
 16 17  1  0
 17 18  1  0
 18 19  2  0
 19 20  1  0
 20 21  2  0
 21 22  1  0
 22 23  2  0
 23 24  1  0
 24 25  2  0
 24 26  1  0
 26 27  1  0
 27 28  2  0
 15  2  1  0
 28 18  1  0
 13  5  1  0
 27 21  1  0
M  END
>  <zinc_id>  (40) 
ZINC000001634550

>  <smiles>  (40) 
C=C1CC[C@@H]2C(C)(C)[C@H](O)CC[C@@]2(C)[C@@H]1COc1ccc2ccc(=O)oc2c1

$$$$

     RDKit          3D

 20 20  0  0  0  0  0  0  0  0999 V2000
   -6.0075   -0.4532    1.1273 C   0  0  0  0  0  0  0  0  0  0  0  0
   -5.1170    0.6101    0.5240 C   0  0  0  0  0  0  0  0  0  0  0  0
   -5.0639    0.5329   -0.9859 C   0  0  0  0  0  0  0  0  0  0  0  0
   -3.8344   -0.2083   -1.4742 C   0  0  0  0  0  0  0  0  0  0  0  0
   -2.6346    0.4749   -1.1141 O   0  0  0  0  0  0  0  0  0  0  0  0
   -1.4752   -0.2258   -0.7731 C   0  0  0  0  0  0  0  0  0  0  0  0
   -1.6675   -1.4299   -0.4238 O   0  0  0  0  0  0  0  0  0  0  0  0
   -0.1506    0.2018   -1.2388 C   0  0  0  0  0  0  0  0  0  0  0  0
    0.0638    0.7240   -2.4984 C   0  0  0  0  0  0  0  0  0  0  0  0
    1.3358    0.9675   -3.0000 C   0  0  0  0  0  0  0  0  0  0  0  0
    2.3209    0.0975   -2.5516 C   0  0  0  0  0  0  0  0  0  0  0  0
    2.1713   -0.4187   -1.2778 C   0  0  0  0  0  0  0  0  0  0  0  0
    0.9709   -0.2983   -0.5887 C   0  0  0  0  0  0  0  0  0  0  0  0
    0.9015   -0.4596    0.8679 C   0  0  0  0  0  0  0  0  0  0  0  0
    0.5643   -1.5499    1.4131 O   0  0  0  0  0  0  0  0  0  0  0  0
    1.6810    0.3939    1.6217 O   0  0  0  0  0  0  0  0  0  0  0  0
    2.2635    0.0426    2.8649 C   0  0  0  0  0  0  0  0  0  0  0  0
    3.7078   -0.3390    2.5655 C   0  0  0  0  0  0  0  0  0  0  0  0
    4.4670    0.8375    1.9782 C   0  0  0  0  0  0  0  0  0  0  0  0
    5.5029    1.3621    2.9636 C   0  0  0  0  0  0  0  0  0  0  0  0
  1  2  1  0
  2  3  1  0
  3  4  1  0
  4  5  1  0
  5  6  1  0
  6  7  2  0
  6  8  1  0
  8  9  2  0
  9 10  1  0
 10 11  2  0
 11 12  1  0
 12 13  2  0
 13 14  1  0
 14 15  2  0
 14 16  1  0
 16 17  1  0
 17 18  1  0
 18 19  1  0
 19 20  1  0
 13  8  1  0
M  END
>  <zinc_id>  (41) 
ZINC000001693431

>  <smiles>  (41) 
CCCCOC(=O)c1ccccc1C(=O)OCCCC

$$$$

     RDKit          3D

 13 14  0  0  0  0  0  0  0  0999 V2000
   -2.7811    1.4485    0.4441 C   0  0  0  0  0  0  0  0  0  0  0  0
   -1.7517    0.5229   -0.0231 N   0  0  0  0  0  0  0  0  0  0  0  0
   -1.7355   -0.7801    0.3469 C   0  0  0  0  0  0  0  0  0  0  0  0
   -2.9597   -1.3310    0.7348 O   0  0  0  0  0  0  0  0  0  0  0  0
   -0.6486   -1.5604    0.1297 N   0  0  0  0  0  0  0  0  0  0  0  0
    0.5506   -0.9711   -0.0936 C   0  0  0  0  0  0  0  0  0  0  0  0
    1.8353   -1.2957    0.1391 N   0  0  0  0  0  0  0  0  0  0  0  0
    2.5966   -0.1771    0.2142 C   0  0  0  0  0  0  0  0  0  0  0  0
    3.7807    0.0017    0.9372 O   0  0  0  0  0  0  0  0  0  0  0  0
    1.8519    0.7732   -0.4009 N   0  0  0  0  0  0  0  0  0  0  0  0
    0.5803    0.3200   -0.5396 C   0  0  0  0  0  0  0  0  0  0  0  0
   -0.6360    0.9796   -0.6399 C   0  0  0  0  0  0  0  0  0  0  0  0
   -0.6827    2.0695   -1.2489 O   0  0  0  0  0  0  0  0  0  0  0  0
  1  2  1  0
  2  3  1  0
  3  4  1  0
  3  5  2  0
  5  6  1  0
  6  7  1  0
  7  8  2  0
  8  9  1  0
  8 10  1  0
 10 11  1  0
 11 12  1  0
 12 13  2  0
 12  2  1  0
 11  6  2  0
M  END
>  <zinc_id>  (42) 
ZINC000001845780

>  <smiles>  (42) 
Cn1c(O)nc2nc(O)[nH]c2c1=O

$$$$

     RDKit          3D

 21 22  0  0  0  0  0  0  0  0999 V2000
    6.1174   -0.4829    0.2273 C   0  0  0  0  0  0  0  0  0  0  0  0
    4.9325   -0.9100   -0.1854 C   0  0  0  0  0  0  0  0  0  0  0  0
    3.7289   -0.5000    0.5570 C   0  0  0  0  0  0  0  0  0  0  0  0
    3.5675   -1.1025    1.7350 C   0  0  0  0  0  0  0  0  0  0  0  0
    2.6343   -0.0385   -0.2986 C   0  0  0  0  0  0  0  0  0  0  0  0
    1.4224    0.4761    0.3994 C   0  0  0  0  0  0  0  0  0  0  0  0
    0.3583    0.4282   -0.8736 C   0  0  2  0  0  0  0  0  0  0  0  0
   -0.2573    1.9155   -0.5169 C   0  0  2  0  0  0  0  0  0  0  0  0
    0.9009    2.7867   -0.9897 C   0  0  0  0  0  0  0  0  0  0  0  0
   -0.3781    2.0579    0.7951 O   0  0  0  0  0  0  0  0  0  0  0  0
   -1.3901    2.1445   -1.4402 C   0  0  0  0  0  0  0  0  0  0  0  0
   -2.0921    0.7908   -1.5889 C   0  0  0  0  0  0  0  0  0  0  0  0
   -2.0774    0.4698    0.0369 C   0  0  1  0  0  0  0  0  0  0  0  0
   -3.1529   -0.7742    0.0033 C   0  0  0  0  0  0  0  0  0  0  0  0
   -4.2869   -0.1391    0.8143 C   0  0  0  0  0  0  0  0  0  0  0  0
   -3.6471   -1.0402   -1.3098 C   0  0  0  0  0  0  0  0  0  0  0  0
   -2.6233   -1.8472    0.8790 C   0  0  0  0  0  0  0  0  0  0  0  0
   -1.6247   -1.3238    1.9109 C   0  0  0  0  0  0  0  0  0  0  0  0
   -0.3407   -0.9631    1.1687 C   0  0  0  0  0  0  0  0  0  0  0  0
   -0.7628   -0.4926   -0.1118 C   0  0  2  0  0  0  0  0  0  0  0  0
   -1.0289   -1.4553   -1.2120 C   0  0  0  0  0  0  0  0  0  0  0  0
  1  2  2  0
  2  3  1  0
  3  4  2  0
  3  5  1  0
  5  6  1  0
  7  6  1  1
  7  8  1  0
  8  9  1  6
  8 10  1  0
  8 11  1  0
 11 12  1  0
 13 12  1  6
 13 14  1  0
 14 15  1  0
 14 16  1  0
 14 17  1  0
 17 18  1  0
 18 19  1  0
 19 20  1  0
 20 21  1  6
 20  7  1  0
 20 13  1  0
M  END
>  <zinc_id>  (43) 
ZINC000001888148

>  <smiles>  (43) 
C=CC(=C)CC[C@H]1[C@@]2(C)CCCC(C)(C)[C@@H]2CC[C@@]1(C)O

$$$$

     RDKit          3D

 13 14  0  0  0  0  0  0  0  0999 V2000
    3.2086   -0.1910    1.7759 C   0  0  0  0  0  0  0  0  0  0  0  0
    3.4389   -0.2316    0.3325 N   0  0  0  0  0  0  0  0  0  0  0  0
    2.6164   -1.2388   -0.3128 C   0  0  0  0  0  0  0  0  0  0  0  0
    1.6117   -0.6480   -1.2649 C   0  0  0  0  0  0  0  0  0  0  0  0
    0.6272    0.2267   -0.5529 C   0  0  0  0  0  0  0  0  0  0  0  0
    0.7459    1.5699   -0.2579 C   0  0  0  0  0  0  0  0  0  0  0  0
   -0.3533    1.8506    0.4673 N   0  0  0  0  0  0  0  0  0  0  0  0
   -1.3314    0.9524    0.2283 C   0  0  0  0  0  0  0  0  0  0  0  0
   -2.4846    0.6034    0.9254 C   0  0  0  0  0  0  0  0  0  0  0  0
   -3.0001   -0.6841    0.8043 C   0  0  0  0  0  0  0  0  0  0  0  0
   -2.7715   -1.2533   -0.4453 C   0  0  0  0  0  0  0  0  0  0  0  0
   -1.5593   -0.9934   -1.0588 C   0  0  0  0  0  0  0  0  0  0  0  0
   -0.7484    0.0372   -0.6410 C   0  0  0  0  0  0  0  0  0  0  0  0
  1  2  1  0
  2  3  1  0
  3  4  1  0
  4  5  1  0
  5  6  2  0
  6  7  1  0
  7  8  1  0
  8  9  2  0
  9 10  1  0
 10 11  2  0
 11 12  1  0
 12 13  2  0
 13  5  1  0
 13  8  1  0
M  END
>  <zinc_id>  (44) 
ZINC000001995685

>  <smiles>  (44) 
CNCCc1c[nH]c2ccccc12

$$$$

     RDKit          3D

 21 22  0  0  0  0  0  0  0  0999 V2000
    4.5039   -1.8143    0.0217 C   0  0  0  0  0  0  0  0  0  0  0  0
    4.5546   -0.6366   -0.1043 C   0  0  0  0  0  0  0  0  0  0  0  0
    3.5290    0.2361    0.4886 C   0  0  0  0  0  0  0  0  0  0  0  0
    4.0029    1.0628    1.4231 C   0  0  0  0  0  0  0  0  0  0  0  0
    2.2214   -0.4018    0.6930 C   0  0  0  0  0  0  0  0  0  0  0  0
    1.0398    0.4815    0.5724 C   0  0  0  0  0  0  0  0  0  0  0  0
    0.5371    0.3947   -0.9828 C   0  0  2  0  0  0  0  0  0  0  0  0
   -0.2029    1.8389   -0.9756 C   0  0  1  0  0  0  0  0  0  0  0  0
   -0.1193    2.5451    0.2899 C   0  0  0  0  0  0  0  0  0  0  0  0
    0.6275    2.5472   -1.8676 O   0  0  0  0  0  0  0  0  0  0  0  0
   -1.5036    1.7406   -1.6540 C   0  0  0  0  0  0  0  0  0  0  0  0
   -2.4621    1.0935   -0.7299 C   0  0  0  0  0  0  0  0  0  0  0  0
   -1.5954    0.3345    0.4363 C   0  0  1  0  0  0  0  0  0  0  0  0
   -2.7310   -0.7833    0.7306 C   0  0  0  0  0  0  0  0  0  0  0  0
   -4.0335   -0.4456    0.1521 C   0  0  0  0  0  0  0  0  0  0  0  0
   -2.8727   -0.6018    2.2451 C   0  0  0  0  0  0  0  0  0  0  0  0
   -2.2954   -2.1407    0.4929 C   0  0  0  0  0  0  0  0  0  0  0  0
   -0.9139   -2.3243    1.1123 C   0  0  0  0  0  0  0  0  0  0  0  0
   -0.0627   -1.6645    0.0696 C   0  0  0  0  0  0  0  0  0  0  0  0
   -0.7471   -0.5380   -0.6226 C   0  0  2  0  0  0  0  0  0  0  0  0
   -1.4767   -0.9240   -1.7910 C   0  0  0  0  0  0  0  0  0  0  0  0
  1  2  2  0
  2  3  1  0
  3  4  2  0
  3  5  1  0
  5  6  1  0
  7  6  1  1
  7  8  1  0
  8  9  1  1
  8 10  1  0
  8 11  1  0
 11 12  1  0
 13 12  1  6
 13 14  1  0
 14 15  1  0
 14 16  1  0
 14 17  1  0
 17 18  1  0
 18 19  1  0
 19 20  1  0
 20 21  1  6
 20  7  1  0
 20 13  1  0
M  END
>  <zinc_id>  (45) 
ZINC000002113746

>  <smiles>  (45) 
C=CC(=C)CC[C@@H]1[C@@](C)(O)CC[C@H]2C(C)(C)CCC[C@@]21C

$$$$

     RDKit          3D

 25 26  0  0  0  0  0  0  0  0999 V2000
   -0.2802    0.4209    1.4587 O   0  0  0  0  0  0  0  0  0  0  0  0
    0.1082    0.6511    0.3227 C   0  0  0  0  0  0  0  0  0  0  0  0
    1.5341    0.8682    0.0321 C   0  0  0  0  0  0  0  0  0  0  0  0
    2.3940   -0.0675    0.3974 C   0  0  0  0  0  0  0  0  0  0  0  0
    3.8438    0.0523    0.2517 C   0  0  0  0  0  0  0  0  0  0  0  0
    4.4645    1.2844    0.4148 C   0  0  0  0  0  0  0  0  0  0  0  0
    5.5307    1.6398   -0.4015 C   0  0  0  0  0  0  0  0  0  0  0  0
    5.9507    0.7847   -1.4132 C   0  0  0  0  0  0  0  0  0  0  0  0
    6.3549    1.2925   -2.6535 O   0  0  0  0  0  0  0  0  0  0  0  0
    5.6738   -0.5616   -1.2274 C   0  0  0  0  0  0  0  0  0  0  0  0
    6.1652   -1.4733   -2.1641 O   0  0  0  0  0  0  0  0  0  0  0  0
    4.6019   -0.8982   -0.4222 C   0  0  0  0  0  0  0  0  0  0  0  0
   -0.8817    0.9902   -0.5084 O   0  0  0  0  0  0  0  0  0  0  0  0
   -2.2471    0.3345   -0.5117 C   0  0  2  0  0  0  0  0  0  0  0  0
   -2.8438    1.2447    0.7279 C   0  0  0  0  0  0  0  0  0  0  0  0
   -4.2056    0.6309    0.6634 C   0  0  2  0  0  0  0  0  0  0  0  0
   -4.5936    0.7985   -0.6678 O   0  0  0  0  0  0  0  0  0  0  0  0
   -5.3387    1.3023    1.3459 C   0  0  0  0  0  0  0  0  0  0  0  0
   -5.3925    1.5282    2.5930 O   0  0  0  0  0  0  0  0  0  0  0  0
   -6.5489    0.6586    0.9876 O   0  0  0  0  0  0  0  0  0  0  0  0
   -4.1235   -0.6273    1.2884 C   0  0  0  0  0  0  0  0  0  0  0  0
   -3.3050   -1.7733    0.4700 C   0  0  1  0  0  0  0  0  0  0  0  0
   -3.7515   -1.3168   -0.8977 O   0  0  0  0  0  0  0  0  0  0  0  0
   -1.8067   -0.9413    0.5314 C   0  0  1  0  0  0  0  0  0  0  0  0
   -1.3032   -1.7600   -0.6177 O   0  0  0  0  0  0  0  0  0  0  0  0
  1  2  2  0
  2  3  1  0
  3  4  2  0
  4  5  1  0
  5  6  2  0
  6  7  1  0
  7  8  2  0
  8  9  1  0
  8 10  1  0
 10 11  1  0
 10 12  2  0
  2 13  1  0
 14 13  1  1
 14 15  1  0
 15 16  1  0
 16 17  1  6
 16 18  1  0
 18 19  2  0
 18 20  1  0
 16 21  1  0
 21 22  1  0
 22 23  1  6
 22 24  1  0
 24 25  1  6
 12  5  1  0
 24 14  1  0
M  END
>  <zinc_id>  (46) 
ZINC000002138728

>  <smiles>  (46) 
O=C(/C=C/c1ccc(O)c(O)c1)O[C@@H]1C[C@](O)(C(=O)O)C[C@@H](O)[C@H]1O

$$$$

     RDKit          3D

 11 11  0  0  0  0  0  0  0  0999 V2000
    2.9941    1.2516   -0.1492 O   0  0  0  0  0  0  0  0  0  0  0  0
    2.7699    0.0949   -0.8811 C   0  0  0  0  0  0  0  0  0  0  0  0
    2.2117   -1.0271   -0.0457 C   0  0  0  0  0  0  0  0  0  0  0  0
    0.7422   -0.8862    0.1754 C   0  0  0  0  0  0  0  0  0  0  0  0
    0.2326   -0.6228    1.4322 C   0  0  0  0  0  0  0  0  0  0  0  0
   -0.8387    0.2494    1.5958 C   0  0  0  0  0  0  0  0  0  0  0  0
   -1.6918    0.4806    0.5275 C   0  0  0  0  0  0  0  0  0  0  0  0
   -3.0586    0.6270    0.7780 O   0  0  0  0  0  0  0  0  0  0  0  0
   -1.2173    0.1356   -0.7305 C   0  0  0  0  0  0  0  0  0  0  0  0
   -1.9844    0.4511   -1.8339 O   0  0  0  0  0  0  0  0  0  0  0  0
   -0.1597   -0.7542   -0.8685 C   0  0  0  0  0  0  0  0  0  0  0  0
  1  2  1  0
  2  3  1  0
  3  4  1  0
  4  5  2  0
  5  6  1  0
  6  7  2  0
  7  8  1  0
  7  9  1  0
  9 10  1  0
  9 11  2  0
 11  4  1  0
M  END
>  <zinc_id>  (47) 
ZINC000002379217

>  <smiles>  (47) 
OCCc1ccc(O)c(O)c1

$$$$

     RDKit          3D

 12 13  0  0  0  0  0  0  0  0999 V2000
   -2.7016    1.0725   -0.5301 C   0  0  0  0  0  0  0  0  0  0  0  0
   -3.3255   -0.1537   -0.6501 C   0  0  0  0  0  0  0  0  0  0  0  0
   -2.5578   -1.2425   -0.6513 N   0  0  0  0  0  0  0  0  0  0  0  0
   -1.3570   -1.2236   -0.0453 C   0  0  0  0  0  0  0  0  0  0  0  0
   -0.6577   -0.0240   -0.1276 C   0  0  0  0  0  0  0  0  0  0  0  0
    0.6747   -0.0304    0.8015 C   0  0  2  0  0  0  0  0  0  0  0  0
    1.3611    1.1882   -0.0808 C   0  0  0  0  0  0  0  0  0  0  0  0
    2.7363    1.2236    0.5303 C   0  0  0  0  0  0  0  0  0  0  0  0
    3.3744    0.0601    0.3157 C   0  0  0  0  0  0  0  0  0  0  0  0
    2.5418   -0.8053   -0.5842 C   0  0  0  0  0  0  0  0  0  0  0  0
    1.3099   -1.1939   -0.0580 N   0  0  0  0  0  0  0  0  0  0  0  0
   -1.3985    1.1290   -0.0546 C   0  0  0  0  0  0  0  0  0  0  0  0
  1  2  2  0
  2  3  1  0
  3  4  2  0
  4  5  1  0
  6  5  1  6
  6  7  1  0
  7  8  1  0
  8  9  2  0
  9 10  1  0
 10 11  1  0
  5 12  2  0
 12  1  1  0
 11  6  1  0
M  END
>  <zinc_id>  (48) 
ZINC000002555297

>  <smiles>  (48) 
C1=CC[C@@H](c2cccnc2)NC1

$$$$

     RDKit          3D

  7  6  0  0  0  0  0  0  0  0999 V2000
   -1.6550    1.1261   -0.4877 C   0  0  0  0  0  0  0  0  0  0  0  0
   -0.8267    0.0344    0.0284 N   0  0  0  0  0  0  0  0  0  0  0  0
   -1.0528   -1.0989   -0.8321 C   0  0  0  0  0  0  0  0  0  0  0  0
   -1.3439   -0.2840    1.3381 C   0  0  0  0  0  0  0  0  0  0  0  0
    0.5083    0.5192    0.0463 C   0  0  0  0  0  0  0  0  0  0  0  0
    1.5835   -0.4997   -0.1463 C   0  0  0  0  0  0  0  0  0  0  0  0
    2.7867    0.2029    0.0533 O   0  0  0  0  0  0  0  0  0  0  0  0
  1  2  1  0
  2  3  1  0
  2  4  1  0
  2  5  1  0
  5  6  1  0
  6  7  1  0
M  CHG  1   2   1
M  END
>  <zinc_id>  (49) 
ZINC000003079337

>  <smiles>  (49) 
C[N+](C)(C)CCO

$$$$

     RDKit          3D

  9  8  0  0  0  0  0  0  0  0999 V2000
    2.2289    0.5845   -1.1346 C   0  0  0  0  0  0  0  0  0  0  0  0
    1.7542    1.0977   -0.2504 C   0  0  0  0  0  0  0  0  0  0  0  0
    0.7998    0.1064    0.5972 C   0  0  2  0  0  0  0  0  0  0  0  0
    1.7398   -1.1750    0.2982 C   0  0  0  0  0  0  0  0  0  0  0  0
   -0.1995   -0.2263   -0.7416 C   0  0  2  0  0  0  0  0  0  0  0  0
   -0.5986    1.2831   -0.8919 N   0  0  0  0  0  0  0  0  0  0  0  0
   -1.5111   -0.5270    0.1196 C   0  0  0  0  0  0  0  0  0  0  0  0
   -1.5159   -0.5451    1.3274 O   0  0  0  0  0  0  0  0  0  0  0  0
   -2.6978   -0.5983   -0.5929 O   0  0  0  0  0  0  0  0  0  0  0  0
  1  2  1  0
  3  2  1  6
  3  4  1  0
  3  5  1  0
  5  6  1  6
  5  7  1  0
  7  8  2  0
  7  9  1  0
M  END
>  <zinc_id>  (50) 
ZINC000003581355

>  <smiles>  (50) 
CC[C@H](C)[C@H](N)C(=O)O

$$$$

     RDKit          3D

 20 19  0  0  0  0  0  0  0  0999 V2000
   -7.0902    1.5282    0.7496 C   0  0  0  0  0  0  0  0  0  0  0  0
   -5.9388    2.3023    0.1569 C   0  0  0  0  0  0  0  0  0  0  0  0
   -5.0078    1.3858   -0.5893 C   0  0  0  0  0  0  0  0  0  0  0  0
   -3.9387    0.7852    0.2780 C   0  0  0  0  0  0  0  0  0  0  0  0
   -4.3186   -0.5625    0.8410 C   0  0  0  0  0  0  0  0  0  0  0  0
   -4.2445   -1.6431   -0.1960 C   0  0  0  0  0  0  0  0  0  0  0  0
   -3.4237   -2.6595    0.0984 C   0  0  0  0  0  0  0  0  0  0  0  0
   -2.0247   -2.2589    0.4608 C   0  0  0  0  0  0  0  0  0  0  0  0
   -1.2397   -2.3449   -0.8136 C   0  0  0  0  0  0  0  0  0  0  0  0
   -0.7673   -1.1879   -1.2784 C   0  0  0  0  0  0  0  0  0  0  0  0
   -0.0265   -0.3385   -0.3154 C   0  0  0  0  0  0  0  0  0  0  0  0
    0.9532   -1.1024    0.4920 C   0  0  0  0  0  0  0  0  0  0  0  0
    2.1604   -0.5688    0.7152 C   0  0  0  0  0  0  0  0  0  0  0  0
    2.8130    0.0749   -0.4711 C   0  0  0  0  0  0  0  0  0  0  0  0
    4.2369   -0.4631   -0.5253 C   0  0  0  0  0  0  0  0  0  0  0  0
    4.9126   -0.3277    0.8340 C   0  0  0  0  0  0  0  0  0  0  0  0
    4.9198    1.1558    1.1740 C   0  0  0  0  0  0  0  0  0  0  0  0
    5.6795    1.8152    0.0653 C   0  0  0  0  0  0  0  0  0  0  0  0
    6.7531    1.2391   -0.2700 O   0  0  0  0  0  0  0  0  0  0  0  0
    5.5920    3.1706   -0.2022 O   0  0  0  0  0  0  0  0  0  0  0  0
  1  2  1  0
  2  3  1  0
  3  4  1  0
  4  5  1  0
  5  6  1  0
  6  7  2  0
  7  8  1  0
  8  9  1  0
  9 10  2  0
 10 11  1  0
 11 12  1  0
 12 13  2  0
 13 14  1  0
 14 15  1  0
 15 16  1  0
 16 17  1  0
 17 18  1  0
 18 19  2  0
 18 20  1  0
M  END
>  <zinc_id>  (51) 
ZINC000003777423

>  <smiles>  (51) 
CCCCC/C=C\C/C=C\C/C=C\CCCCC(=O)O

$$$$

     RDKit          3D

 20 19  0  0  0  0  0  0  0  0999 V2000
   -7.0902    1.5282    0.7496 C   0  0  0  0  0  0  0  0  0  0  0  0
   -5.9388    2.3023    0.1569 C   0  0  0  0  0  0  0  0  0  0  0  0
   -5.0078    1.3858   -0.5893 C   0  0  0  0  0  0  0  0  0  0  0  0
   -3.9387    0.7852    0.2780 C   0  0  0  0  0  0  0  0  0  0  0  0
   -4.3186   -0.5625    0.8410 C   0  0  0  0  0  0  0  0  0  0  0  0
   -4.2445   -1.6431   -0.1960 C   0  0  0  0  0  0  0  0  0  0  0  0
   -3.4237   -2.6595    0.0984 C   0  0  0  0  0  0  0  0  0  0  0  0
   -2.0247   -2.2589    0.4608 C   0  0  0  0  0  0  0  0  0  0  0  0
   -1.2397   -2.3449   -0.8136 C   0  0  0  0  0  0  0  0  0  0  0  0
   -0.7673   -1.1879   -1.2784 C   0  0  0  0  0  0  0  0  0  0  0  0
   -0.0265   -0.3385   -0.3154 C   0  0  0  0  0  0  0  0  0  0  0  0
    0.9532   -1.1024    0.4920 C   0  0  0  0  0  0  0  0  0  0  0  0
    2.1604   -0.5688    0.7152 C   0  0  0  0  0  0  0  0  0  0  0  0
    2.8130    0.0749   -0.4711 C   0  0  0  0  0  0  0  0  0  0  0  0
    4.2369   -0.4631   -0.5253 C   0  0  0  0  0  0  0  0  0  0  0  0
    4.9126   -0.3277    0.8340 C   0  0  0  0  0  0  0  0  0  0  0  0
    4.9198    1.1558    1.1740 C   0  0  0  0  0  0  0  0  0  0  0  0
    5.6795    1.8152    0.0653 C   0  0  0  0  0  0  0  0  0  0  0  0
    6.7531    1.2391   -0.2700 O   0  0  0  0  0  0  0  0  0  0  0  0
    5.5920    3.1706   -0.2022 O   0  0  0  0  0  0  0  0  0  0  0  0
  1  2  1  0
  2  3  1  0
  3  4  1  0
  4  5  1  0
  5  6  1  0
  6  7  2  0
  7  8  1  0
  8  9  1  0
  9 10  2  0
 10 11  1  0
 11 12  1  0
 12 13  2  0
 13 14  1  0
 14 15  1  0
 15 16  1  0
 16 17  1  0
 17 18  1  0
 18 19  2  0
 18 20  1  0
M  END
>  <zinc_id>  (52) 
ZINC000003777423

>  <smiles>  (52) 
CCCCC/C=C\C/C=C\C/C=C\CCCCC(=O)O

$$$$

     RDKit          3D

 25 29  0  0  0  0  0  0  0  0999 V2000
   -6.0226    1.1800   -0.3260 C   0  0  0  0  0  0  0  0  0  0  0  0
   -5.6636   -0.1446   -0.6999 O   0  0  0  0  0  0  0  0  0  0  0  0
   -4.3027   -0.4121   -0.8645 C   0  0  0  0  0  0  0  0  0  0  0  0
   -3.8854   -1.7324   -0.9765 C   0  0  0  0  0  0  0  0  0  0  0  0
   -2.5289   -2.0342   -0.9669 C   0  0  0  0  0  0  0  0  0  0  0  0
   -1.6137   -1.1121   -0.5275 C   0  0  0  0  0  0  0  0  0  0  0  0
   -0.2688   -1.3835   -0.3510 C   0  0  0  0  0  0  0  0  0  0  0  0
    0.4090   -0.6242    0.5892 C   0  0  0  0  0  0  0  0  0  0  0  0
   -0.2164    0.3029    1.3558 N   0  0  0  0  0  0  0  0  0  0  0  0
   -1.4072    0.8090    0.9479 C   0  0  0  0  0  0  0  0  0  0  0  0
   -2.0746    0.1115   -0.0519 C   0  0  0  0  0  0  0  0  0  0  0  0
   -3.3219    0.5057   -0.5112 C   0  0  0  0  0  0  0  0  0  0  0  0
   -3.6606    1.8348   -0.4230 O   0  0  0  0  0  0  0  0  0  0  0  0
   -2.9809    2.8036    0.3309 C   0  0  0  0  0  0  0  0  0  0  0  0
    0.3254    0.5293    2.6743 C   0  0  0  0  0  0  0  0  0  0  0  0
    1.8170    0.6493    2.7092 C   0  0  0  0  0  0  0  0  0  0  0  0
    2.5097   -0.0723    1.6313 C   0  0  0  0  0  0  0  0  0  0  0  0
    3.8806    0.1173    1.5305 C   0  0  0  0  0  0  0  0  0  0  0  0
    4.5599   -0.0879    0.3357 C   0  0  0  0  0  0  0  0  0  0  0  0
    3.8780   -0.5150   -0.7973 C   0  0  0  0  0  0  0  0  0  0  0  0
    2.5993   -1.0063   -0.5602 C   0  0  0  0  0  0  0  0  0  0  0  0
    1.8766   -0.6600    0.5671 C   0  0  0  0  0  0  0  0  0  0  0  0
    4.5073    0.0891   -1.8903 O   0  0  0  0  0  0  0  0  0  0  0  0
    5.7353    0.6418   -1.4691 C   0  0  0  0  0  0  0  0  0  0  0  0
    5.8492    0.2102   -0.1152 O   0  0  0  0  0  0  0  0  0  0  0  0
  1  2  1  0
  2  3  1  0
  3  4  2  0
  4  5  1  0
  5  6  2  0
  6  7  1  0
  7  8  2  0
  8  9  1  0
  9 10  2  0
 10 11  1  0
 11 12  2  0
 12 13  1  0
 13 14  1  0
  9 15  1  0
 15 16  1  0
 16 17  1  0
 17 18  2  0
 18 19  1  0
 19 20  2  0
 20 21  1  0
 21 22  2  0
 20 23  1  0
 23 24  1  0
 24 25  1  0
 12  3  1  0
 22 17  1  0
 11  6  1  0
 25 19  1  0
 22  8  1  0
M  CHG  1   9   1
M  END
>  <zinc_id>  (53) 
ZINC000003779067

>  <smiles>  (53) 
COc1ccc2cc3[n+](cc2c1OC)CCc1cc2c(cc1-3)OCO2

$$$$

     RDKit          3D

 33 34  0  0  0  0  0  0  0  0999 V2000
   -0.6182   -0.1288    1.4642 C   0  0  0  0  0  0  0  0  0  0  0  0
   -0.5011    0.6272    1.0810 C   0  0  0  0  0  0  0  0  0  0  0  0
   -1.4182    1.0606    0.2134 C   0  0  0  0  0  0  0  0  0  0  0  0
   -2.2766   -0.0160   -0.3821 C   0  0  0  0  0  0  0  0  0  0  0  0
   -3.7087    0.3381   -0.3653 C   0  0  0  0  0  0  0  0  0  0  0  0
   -4.1318    1.4059   -1.0237 C   0  0  0  0  0  0  0  0  0  0  0  0
   -3.2459    2.0684   -2.0311 C   0  0  0  0  0  0  0  0  0  0  0  0
   -5.3661    2.0466   -0.5849 C   0  0  0  0  0  0  0  0  0  0  0  0
   -5.6790    3.1937   -1.0068 O   0  0  0  0  0  0  0  0  0  0  0  0
   -6.3194    1.2556    0.1943 C   0  0  0  0  0  0  0  0  0  0  0  0
   -7.6176    1.6771    0.4071 C   0  0  0  0  0  0  0  0  0  0  0  0
   -8.5910    0.7557    0.7439 C   0  0  0  0  0  0  0  0  0  0  0  0
   -8.2911   -0.5862    0.8092 C   0  0  0  0  0  0  0  0  0  0  0  0
   -6.9780   -0.9791    0.8319 C   0  0  0  0  0  0  0  0  0  0  0  0
   -6.0013   -0.0416    0.5556 C   0  0  0  0  0  0  0  0  0  0  0  0
   -4.6406   -0.5357    0.3592 C   0  0  0  0  0  0  0  0  0  0  0  0
   -4.2374   -1.5204    1.0279 O   0  0  0  0  0  0  0  0  0  0  0  0
    0.8262    1.2934    1.2382 C   0  0  0  0  0  0  0  0  0  0  0  0
    1.7571    0.7312    0.1791 C   0  0  0  0  0  0  0  0  0  0  0  0
    1.1001   -0.4480   -0.5296 C   0  0  0  0  0  0  0  0  0  0  0  0
    1.6560   -1.7426    0.3187 C   0  0  1  0  0  0  0  0  0  0  0  0
    1.5361   -2.7309   -0.9900 C   0  0  0  0  0  0  0  0  0  0  0  0
    3.2219   -1.3761   -0.0241 C   0  0  0  0  0  0  0  0  0  0  0  0
    3.9704   -2.2202    0.9933 C   0  0  0  0  0  0  0  0  0  0  0  0
    4.9537   -3.0903    0.2209 C   0  0  0  0  0  0  0  0  0  0  0  0
    6.3983   -2.4271    0.6422 C   0  0  1  0  0  0  0  0  0  0  0  0
    7.2394   -3.5883   -0.1631 C   0  0  0  0  0  0  0  0  0  0  0  0
    6.3970   -1.4323   -0.6672 C   0  0  0  0  0  0  0  0  0  0  0  0
    7.6080   -0.5741   -0.3900 C   0  0  0  0  0  0  0  0  0  0  0  0
    7.1528    0.8125    0.0397 C   0  0  0  0  0  0  0  0  0  0  0  0
    8.2839    1.7645   -0.2364 C   0  0  0  0  0  0  0  0  0  0  0  0
    9.5518    1.2584    0.4408 C   0  0  0  0  0  0  0  0  0  0  0  0
    7.9692    3.1488    0.2655 C   0  0  0  0  0  0  0  0  0  0  0  0
  1  2  1  0
  2  3  2  0
  3  4  1  0
  4  5  1  0
  5  6  2  0
  6  7  1  0
  6  8  1  0
  8  9  2  0
  8 10  1  0
 10 11  2  0
 11 12  1  0
 12 13  2  0
 13 14  1  0
 14 15  2  0
 15 16  1  0
 16 17  2  0
  2 18  1  0
 18 19  1  0
 19 20  1  0
 21 20  1  6
 21 22  1  0
 21 23  1  0
 23 24  1  0
 24 25  1  0
 26 25  1  6
 26 27  1  0
 26 28  1  0
 28 29  1  0
 29 30  1  0
 30 31  1  0
 31 32  1  0
 31 33  1  0
 16  5  1  0
 15 10  1  0
M  END
>  <zinc_id>  (54) 
ZINC000003831329

>  <smiles>  (54) 
CC1=C(C/C=C(\C)CCC[C@@H](C)CCC[C@@H](C)CCCC(C)C)C(=O)c2ccccc2C1=O

$$$$

     RDKit          3D

 33 34  0  0  0  0  0  0  0  0999 V2000
   -1.1006    1.6297   -0.7719 C   0  0  0  0  0  0  0  0  0  0  0  0
   -0.8587    0.8779   -0.2363 C   0  0  0  0  0  0  0  0  0  0  0  0
   -1.5781   -0.2491   -0.3018 C   0  0  0  0  0  0  0  0  0  0  0  0
   -2.5564   -0.4208   -1.4198 C   0  0  0  0  0  0  0  0  0  0  0  0
   -3.9129   -0.4864   -0.7917 C   0  0  0  0  0  0  0  0  0  0  0  0
   -4.0623   -0.6972    0.4982 C   0  0  0  0  0  0  0  0  0  0  0  0
   -3.0776   -1.5811    1.1580 C   0  0  0  0  0  0  0  0  0  0  0  0
   -5.2284   -0.2498    1.2646 C   0  0  0  0  0  0  0  0  0  0  0  0
   -5.1803   -0.1683    2.5188 O   0  0  0  0  0  0  0  0  0  0  0  0
   -6.1198    0.6865    0.5807 C   0  0  0  0  0  0  0  0  0  0  0  0
   -6.9245    1.5537    1.2677 C   0  0  0  0  0  0  0  0  0  0  0  0
   -8.0081    2.0810    0.5801 C   0  0  0  0  0  0  0  0  0  0  0  0
   -8.3068    1.6836   -0.6953 C   0  0  0  0  0  0  0  0  0  0  0  0
   -7.2705    1.1430   -1.4468 C   0  0  0  0  0  0  0  0  0  0  0  0
   -6.1224    0.7243   -0.8080 C   0  0  0  0  0  0  0  0  0  0  0  0
   -5.0771    0.0007   -1.5422 C   0  0  0  0  0  0  0  0  0  0  0  0
   -5.0794   -0.0188   -2.7950 O   0  0  0  0  0  0  0  0  0  0  0  0
    0.3083    0.8519    0.7066 C   0  0  0  0  0  0  0  0  0  0  0  0
    0.6352   -0.5837    1.0991 C   0  0  0  0  0  0  0  0  0  0  0  0
    0.9517   -1.2885   -0.1607 C   0  0  0  0  0  0  0  0  0  0  0  0
    1.9075   -2.5784    0.1608 C   0  0  2  0  0  0  0  0  0  0  0  0
    2.5371   -1.9704    1.5505 C   0  0  0  0  0  0  0  0  0  0  0  0
    3.1449   -1.9752   -0.7351 C   0  0  0  0  0  0  0  0  0  0  0  0
    3.2980   -0.5340   -0.3404 C   0  0  0  0  0  0  0  0  0  0  0  0
    4.6500   -0.2109    0.2223 C   0  0  0  0  0  0  0  0  0  0  0  0
    5.6756   -1.1506   -0.6464 C   0  0  1  0  0  0  0  0  0  0  0  0
    6.1418    0.1148   -1.5801 C   0  0  0  0  0  0  0  0  0  0  0  0
    6.8984   -0.9064    0.4193 C   0  0  0  0  0  0  0  0  0  0  0  0
    8.1489   -0.8516   -0.4078 C   0  0  0  0  0  0  0  0  0  0  0  0
    8.6412    0.5550   -0.5790 C   0  0  0  0  0  0  0  0  0  0  0  0
    9.3576    1.1048    0.6138 C   0  0  0  0  0  0  0  0  0  0  0  0
    9.1284    0.3449    1.8815 C   0  0  0  0  0  0  0  0  0  0  0  0
    9.0393    2.5692    0.7222 C   0  0  0  0  0  0  0  0  0  0  0  0
  1  2  1  0
  2  3  2  0
  3  4  1  0
  4  5  1  0
  5  6  2  0
  6  7  1  0
  6  8  1  0
  8  9  2  0
  8 10  1  0
 10 11  2  0
 11 12  1  0
 12 13  2  0
 13 14  1  0
 14 15  2  0
 15 16  1  0
 16 17  2  0
  2 18  1  0
 18 19  1  0
 19 20  1  0
 21 20  1  6
 21 22  1  0
 21 23  1  0
 23 24  1  0
 24 25  1  0
 26 25  1  1
 26 27  1  0
 26 28  1  0
 28 29  1  0
 29 30  1  0
 30 31  1  0
 31 32  1  0
 31 33  1  0
 16  5  1  0
 15 10  1  0
M  END
>  <zinc_id>  (55) 
ZINC000003831330

>  <smiles>  (55) 
CC1=C(C/C=C(\C)CCC[C@H](C)CCC[C@@H](C)CCCC(C)C)C(=O)c2ccccc2C1=O

$$$$

     RDKit          3D

 33 34  0  0  0  0  0  0  0  0999 V2000
   -2.2351   -1.1412   -0.9208 C   0  0  0  0  0  0  0  0  0  0  0  0
   -1.7328   -1.7177   -0.4062 C   0  0  0  0  0  0  0  0  0  0  0  0
   -2.2595   -2.3295    0.6608 C   0  0  0  0  0  0  0  0  0  0  0  0
   -3.7126   -2.5910    0.6315 C   0  0  0  0  0  0  0  0  0  0  0  0
   -4.4352   -1.3348    0.3488 C   0  0  0  0  0  0  0  0  0  0  0  0
   -5.2898   -1.3123   -0.6685 C   0  0  0  0  0  0  0  0  0  0  0  0
   -5.5836   -2.5178   -1.4740 C   0  0  0  0  0  0  0  0  0  0  0  0
   -5.7580   -0.0230   -1.1513 C   0  0  0  0  0  0  0  0  0  0  0  0
   -6.4469    0.0515   -2.1894 O   0  0  0  0  0  0  0  0  0  0  0  0
   -5.2744    1.1866   -0.5031 C   0  0  0  0  0  0  0  0  0  0  0  0
   -5.7141    2.4086   -0.9786 C   0  0  0  0  0  0  0  0  0  0  0  0
   -5.3670    3.5861   -0.3399 C   0  0  0  0  0  0  0  0  0  0  0  0
   -4.6404    3.4862    0.8154 C   0  0  0  0  0  0  0  0  0  0  0  0
   -4.2776    2.2740    1.3451 C   0  0  0  0  0  0  0  0  0  0  0  0
   -4.6779    1.1195    0.7268 C   0  0  0  0  0  0  0  0  0  0  0  0
   -4.2326   -0.1708    1.2091 C   0  0  0  0  0  0  0  0  0  0  0  0
   -3.4817   -0.1840    2.2173 O   0  0  0  0  0  0  0  0  0  0  0  0
   -0.2433   -1.5639   -0.3491 C   0  0  0  0  0  0  0  0  0  0  0  0
   -0.0177   -0.3982    0.6079 C   0  0  0  0  0  0  0  0  0  0  0  0
    1.2252    0.3127    0.0905 C   0  0  0  0  0  0  0  0  0  0  0  0
    2.2151   -0.9814   -0.1446 C   0  0  1  0  0  0  0  0  0  0  0  0
    3.2448   -0.0958   -1.0735 C   0  0  0  0  0  0  0  0  0  0  0  0
    3.0713   -0.6586    1.2235 C   0  0  0  0  0  0  0  0  0  0  0  0
    4.1273   -1.7465    1.1944 C   0  0  0  0  0  0  0  0  0  0  0  0
    5.4759   -1.0592    1.0113 C   0  0  0  0  0  0  0  0  0  0  0  0
    6.0506   -1.7926   -0.3453 C   0  0  2  0  0  0  0  0  0  0  0  0
    6.6836   -3.0389    0.5234 C   0  0  0  0  0  0  0  0  0  0  0  0
    7.4618   -0.9482   -0.2785 C   0  0  0  0  0  0  0  0  0  0  0  0
    7.0522    0.4780   -0.5225 C   0  0  0  0  0  0  0  0  0  0  0  0
    7.4204    1.3951    0.6102 C   0  0  0  0  0  0  0  0  0  0  0  0
    7.0590    2.8059    0.2408 C   0  0  0  0  0  0  0  0  0  0  0  0
    8.2679    3.6052   -0.2104 C   0  0  0  0  0  0  0  0  0  0  0  0
    6.0252    2.8958   -0.8463 C   0  0  0  0  0  0  0  0  0  0  0  0
  1  2  1  0
  2  3  2  0
  3  4  1  0
  4  5  1  0
  5  6  2  0
  6  7  1  0
  6  8  1  0
  8  9  2  0
  8 10  1  0
 10 11  2  0
 11 12  1  0
 12 13  2  0
 13 14  1  0
 14 15  2  0
 15 16  1  0
 16 17  2  0
  2 18  1  0
 18 19  1  0
 19 20  1  0
 21 20  1  1
 21 22  1  0
 21 23  1  0
 23 24  1  0
 24 25  1  0
 26 25  1  1
 26 27  1  0
 26 28  1  0
 28 29  1  0
 29 30  1  0
 30 31  1  0
 31 32  1  0
 31 33  1  0
 16  5  1  0
 15 10  1  0
M  END
>  <zinc_id>  (56) 
ZINC000003831331

>  <smiles>  (56) 
CC1=C(C/C=C(\C)CCC[C@@H](C)CCC[C@H](C)CCCC(C)C)C(=O)c2ccccc2C1=O

$$$$

     RDKit          3D

 33 34  0  0  0  0  0  0  0  0999 V2000
   -1.0454   -0.2326   -0.8077 C   0  0  0  0  0  0  0  0  0  0  0  0
   -1.0720   -0.1358   -1.4541 C   0  0  0  0  0  0  0  0  0  0  0  0
   -2.2928   -0.3241   -1.9903 C   0  0  0  0  0  0  0  0  0  0  0  0
   -3.1995   -1.1099   -1.0845 C   0  0  0  0  0  0  0  0  0  0  0  0
   -3.8766   -0.2415   -0.0984 C   0  0  0  0  0  0  0  0  0  0  0  0
   -3.8235   -0.4731    1.2146 C   0  0  0  0  0  0  0  0  0  0  0  0
   -2.9651   -1.5709    1.7515 C   0  0  0  0  0  0  0  0  0  0  0  0
   -4.8923    0.0691    2.0621 C   0  0  0  0  0  0  0  0  0  0  0  0
   -4.8248   -0.0487    3.3190 O   0  0  0  0  0  0  0  0  0  0  0  0
   -6.1014    0.6652    1.5251 C   0  0  0  0  0  0  0  0  0  0  0  0
   -7.3317    0.6028    2.1669 C   0  0  0  0  0  0  0  0  0  0  0  0
   -8.5273    0.5866    1.4600 C   0  0  0  0  0  0  0  0  0  0  0  0
   -8.5113    1.1004    0.1692 C   0  0  0  0  0  0  0  0  0  0  0  0
   -7.2920    1.3849   -0.4309 C   0  0  0  0  0  0  0  0  0  0  0  0
   -6.1085    0.9962    0.1769 C   0  0  0  0  0  0  0  0  0  0  0  0
   -4.8924    0.7018   -0.5769 C   0  0  0  0  0  0  0  0  0  0  0  0
   -4.8080    1.0779   -1.7691 O   0  0  0  0  0  0  0  0  0  0  0  0
    0.0991    0.1157   -2.3647 C   0  0  0  0  0  0  0  0  0  0  0  0
    0.8829    1.3051   -1.8362 C   0  0  0  0  0  0  0  0  0  0  0  0
    0.9952    1.2752   -0.3172 C   0  0  0  0  0  0  0  0  0  0  0  0
    1.6179   -0.1839    0.0570 C   0  0  2  0  0  0  0  0  0  0  0  0
    1.9198    0.2536    1.5969 C   0  0  0  0  0  0  0  0  0  0  0  0
    3.1135    0.2237   -0.4466 C   0  0  0  0  0  0  0  0  0  0  0  0
    3.6654   -1.1609   -0.6699 C   0  0  0  0  0  0  0  0  0  0  0  0
    4.7716   -1.1846   -1.6766 C   0  0  0  0  0  0  0  0  0  0  0  0
    5.5695    0.2227   -1.4791 C   0  0  2  0  0  0  0  0  0  0  0  0
    6.6539   -0.1440   -2.6392 C   0  0  0  0  0  0  0  0  0  0  0  0
    6.5165   -0.3818   -0.2981 C   0  0  0  0  0  0  0  0  0  0  0  0
    7.5269    0.7178   -0.1206 C   0  0  0  0  0  0  0  0  0  0  0  0
    8.9262    0.1531   -0.1587 C   0  0  0  0  0  0  0  0  0  0  0  0
    9.4970   -0.0309    1.2313 C   0  0  0  0  0  0  0  0  0  0  0  0
   10.9834    0.2281    1.2469 C   0  0  0  0  0  0  0  0  0  0  0  0
    8.8261    0.8886    2.2416 C   0  0  0  0  0  0  0  0  0  0  0  0
  1  2  1  0
  2  3  2  0
  3  4  1  0
  4  5  1  0
  5  6  2  0
  6  7  1  0
  6  8  1  0
  8  9  2  0
  8 10  1  0
 10 11  2  0
 11 12  1  0
 12 13  2  0
 13 14  1  0
 14 15  2  0
 15 16  1  0
 16 17  2  0
  2 18  1  0
 18 19  1  0
 19 20  1  0
 21 20  1  6
 21 22  1  0
 21 23  1  0
 23 24  1  0
 24 25  1  0
 26 25  1  6
 26 27  1  0
 26 28  1  0
 28 29  1  0
 29 30  1  0
 30 31  1  0
 31 32  1  0
 31 33  1  0
 16  5  1  0
 15 10  1  0
M  END
>  <zinc_id>  (57) 
ZINC000003831332

>  <smiles>  (57) 
CC1=C(C/C=C(\C)CCC[C@H](C)CCC[C@H](C)CCCC(C)C)C(=O)c2ccccc2C1=O

$$$$

     RDKit          3D

 20 21  0  0  0  0  0  0  0  0999 V2000
   -2.4132    1.1962   -1.4393 O   0  0  0  0  0  0  0  0  0  0  0  0
   -2.5711    1.4292   -1.2974 C   0  0  0  0  0  0  0  0  0  0  0  0
   -2.8494    0.6414   -0.0683 C   0  0  0  0  0  0  0  0  0  0  0  0
   -4.1549    0.6620    0.3681 C   0  0  0  0  0  0  0  0  0  0  0  0
   -4.5568   -0.2546    1.3027 C   0  0  0  0  0  0  0  0  0  0  0  0
   -3.7654   -1.3905    1.4381 C   0  0  0  0  0  0  0  0  0  0  0  0
   -2.4006   -1.2106    1.2582 C   0  0  0  0  0  0  0  0  0  0  0  0
   -1.8708   -0.1761    0.4946 C   0  0  0  0  0  0  0  0  0  0  0  0
   -0.7484   -0.3065   -0.2901 O   0  0  0  0  0  0  0  0  0  0  0  0
    0.6163   -0.4408    0.4435 C   0  0  2  0  0  0  0  0  0  0  0  0
    1.1336    0.8781   -0.1579 O   0  0  0  0  0  0  0  0  0  0  0  0
    2.4664    0.8308    0.5730 C   0  0  2  0  0  0  0  0  0  0  0  0
    2.9058    2.3336    0.0547 C   0  0  0  0  0  0  0  0  0  0  0  0
    2.1982    3.2164    0.8697 O   0  0  0  0  0  0  0  0  0  0  0  0
    3.2124    0.0962   -0.7963 C   0  0  1  0  0  0  0  0  0  0  0  0
    4.5516    0.0629   -0.1184 O   0  0  0  0  0  0  0  0  0  0  0  0
    2.8013   -1.4494   -0.1820 C   0  0  2  0  0  0  0  0  0  0  0  0
    3.3611   -2.1246   -1.4062 O   0  0  0  0  0  0  0  0  0  0  0  0
    1.2494   -1.3517   -0.8944 C   0  0  1  0  0  0  0  0  0  0  0  0
    0.8345   -2.6420   -0.2555 O   0  0  0  0  0  0  0  0  0  0  0  0
  1  2  1  0
  2  3  1  0
  3  4  2  0
  4  5  1  0
  5  6  2  0
  6  7  1  0
  7  8  2  0
  8  9  1  0
 10  9  1  6
 10 11  1  0
 11 12  1  0
 12 13  1  6
 13 14  1  0
 12 15  1  0
 15 16  1  1
 15 17  1  0
 17 18  1  6
 17 19  1  0
 19 20  1  1
  8  3  1  0
 19 10  1  0
M  END
>  <zinc_id>  (58) 
ZINC000003847505

>  <smiles>  (58) 
OCc1ccccc1O[C@@H]1O[C@H](CO)[C@@H](O)[C@H](O)[C@H]1O

$$$$

     RDKit          3D

 29 33  0  0  0  0  0  0  0  0999 V2000
    6.4243    1.1492    0.7402 C   0  0  0  0  0  0  0  0  0  0  0  0
    6.3682   -0.0297    1.2108 C   0  0  0  0  0  0  0  0  0  0  0  0
    7.5743   -0.8993    1.2008 C   0  0  0  0  0  0  0  0  0  0  0  0
    5.0317   -0.9116    0.8005 C   0  0  1  0  0  0  0  0  0  0  0  0
    3.9914    0.3649    1.1560 C   0  0  0  0  0  0  0  0  0  0  0  0
    3.1210    0.2374   -0.0562 C   0  0  0  0  0  0  0  0  0  0  0  0
    3.7693   -0.5327   -1.0038 C   0  0  0  0  0  0  0  0  0  0  0  0
    3.1267   -0.9545   -2.1629 C   0  0  0  0  0  0  0  0  0  0  0  0
    1.7377   -0.9311   -2.2102 C   0  0  0  0  0  0  0  0  0  0  0  0
    1.0926   -0.1013   -1.2989 C   0  0  0  0  0  0  0  0  0  0  0  0
    1.7315    0.3371   -0.1356 C   0  0  0  0  0  0  0  0  0  0  0  0
    1.1257    1.4190    0.3743 O   0  0  0  0  0  0  0  0  0  0  0  0
   -0.3256    1.3626    0.9110 C   0  0  2  0  0  0  0  0  0  0  0  0
   -0.3716   -0.2789    1.2065 C   0  0  0  0  0  0  0  0  0  0  0  0
   -1.6050   -0.2451    1.9339 O   0  0  0  0  0  0  0  0  0  0  0  0
   -2.6150    0.3840    1.1825 C   0  0  0  0  0  0  0  0  0  0  0  0
   -3.9560    0.2954    1.5513 C   0  0  0  0  0  0  0  0  0  0  0  0
   -4.9282    0.0620    0.5819 C   0  0  0  0  0  0  0  0  0  0  0  0
   -6.2651    0.4285    0.7682 O   0  0  0  0  0  0  0  0  0  0  0  0
   -6.5003    1.8345    0.8014 C   0  0  0  0  0  0  0  0  0  0  0  0
   -4.5636   -0.1743   -0.7409 C   0  0  0  0  0  0  0  0  0  0  0  0
   -5.3570   -1.0710   -1.4461 O   0  0  0  0  0  0  0  0  0  0  0  0
   -5.6844   -2.3629   -0.9969 C   0  0  0  0  0  0  0  0  0  0  0  0
   -3.2714    0.1578   -1.1409 C   0  0  0  0  0  0  0  0  0  0  0  0
   -2.3629    0.4417   -0.1431 C   0  0  0  0  0  0  0  0  0  0  0  0
   -1.0610    1.2370   -0.6765 C   0  0  2  0  0  0  0  0  0  0  0  0
   -0.3381   -0.1444   -1.0997 C   0  0  0  0  0  0  0  0  0  0  0  0
   -1.0077   -0.6092   -2.0723 O   0  0  0  0  0  0  0  0  0  0  0  0
    5.1185   -0.4651   -0.7060 O   0  0  0  0  0  0  0  0  0  0  0  0
  1  2  2  0
  2  3  1  0
  4  2  1  1
  4  5  1  0
  5  6  1  0
  6  7  2  0
  7  8  1  0
  8  9  2  0
  9 10  1  0
 10 11  2  0
 11 12  1  0
 13 12  1  6
 13 14  1  0
 14 15  1  0
 15 16  1  0
 16 17  2  0
 17 18  1  0
 18 19  1  0
 19 20  1  0
 18 21  2  0
 21 22  1  0
 22 23  1  0
 21 24  1  0
 24 25  2  0
 26 25  1  1
 26 27  1  0
 27 28  2  0
  7 29  1  0
 29  4  1  0
 11  6  1  0
 26 13  1  0
 27 10  1  0
 25 16  1  0
M  END
>  <zinc_id>  (59) 
ZINC000003860715

>  <smiles>  (59) 
C=C(C)[C@H]1Cc2c(ccc3c2O[C@@H]2COc4cc(OC)c(OC)cc4[C@@H]2C3=O)O1

$$$$

     RDKit          3D

 11 11  0  0  0  0  0  0  0  0999 V2000
   -3.2147   -1.0277    0.5701 C   0  0  0  0  0  0  0  0  0  0  0  0
   -2.4988   -0.2356   -0.1599 C   0  0  0  0  0  0  0  0  0  0  0  0
   -2.5897    1.2103    0.0442 C   0  0  0  0  0  0  0  0  0  0  0  0
   -1.0035   -0.8870   -0.2379 C   0  0  2  0  0  0  0  0  0  0  0  0
   -0.4843   -0.0634    1.1109 C   0  0  0  0  0  0  0  0  0  0  0  0
    0.9058   -0.6383    1.1274 C   0  0  0  0  0  0  0  0  0  0  0  0
    1.6404   -0.1939    0.0964 C   0  0  0  0  0  0  0  0  0  0  0  0
    3.1457   -0.1736    0.1528 C   0  0  0  0  0  0  0  0  0  0  0  0
    3.6001    1.1142    0.4957 O   0  0  0  0  0  0  0  0  0  0  0  0
    0.9407    0.5967   -0.9068 C   0  0  0  0  0  0  0  0  0  0  0  0
   -0.4418    0.2985   -1.2488 C   0  0  0  0  0  0  0  0  0  0  0  0
  1  2  2  0
  2  3  1  0
  4  2  1  1
  4  5  1  0
  5  6  1  0
  6  7  2  0
  7  8  1  0
  8  9  1  0
  7 10  1  0
 10 11  1  0
 11  4  1  0
M  END
>  <zinc_id>  (60) 
ZINC000003861538

>  <smiles>  (60) 
C=C(C)[C@@H]1CC=C(CO)CC1

$$$$

     RDKit          3D

 12 11  0  0  0  0  0  0  0  0999 V2000
    3.2729    0.8197    0.1221 N   0  0  0  0  0  0  0  0  0  0  0  0
    2.9890   -0.2842   -0.2688 C   0  0  0  0  0  0  0  0  0  0  0  0
    3.1768   -1.4768    0.5026 N   0  0  0  0  0  0  0  0  0  0  0  0
    2.1028   -0.3534   -1.2198 N   0  0  0  0  0  0  0  0  0  0  0  0
    0.7995   -0.6155   -0.9165 O   0  0  0  0  0  0  0  0  0  0  0  0
    0.3197   -0.9270    0.3677 C   0  0  0  0  0  0  0  0  0  0  0  0
   -0.5866    0.1674    0.9158 C   0  0  0  0  0  0  0  0  0  0  0  0
   -1.2684    0.7170   -0.4770 C   0  0  2  0  0  0  0  0  0  0  0  0
   -1.5391    2.1346    0.1579 N   0  0  0  0  0  0  0  0  0  0  0  0
   -2.7378    0.1935   -0.0687 C   0  0  0  0  0  0  0  0  0  0  0  0
   -2.8206   -0.9797    0.3164 O   0  0  0  0  0  0  0  0  0  0  0  0
   -3.7081    0.6044   -0.9909 O   0  0  0  0  0  0  0  0  0  0  0  0
  1  2  1  0
  2  3  1  0
  2  4  2  3
  4  5  1  0
  5  6  1  0
  6  7  1  0
  8  7  1  1
  8  9  1  0
  8 10  1  0
 10 11  2  0
 10 12  1  0
M  END
>  <zinc_id>  (61) 
ZINC000003869452

>  <smiles>  (61) 
NC(N)=NOCC[C@H](N)C(=O)O

$$$$

     RDKit          3D

 21 23  0  0  0  0  0  0  0  0999 V2000
    1.9233   -2.5157    1.0307 O   0  0  0  0  0  0  0  0  0  0  0  0
    1.2562   -1.5195    0.6843 C   0  0  0  0  0  0  0  0  0  0  0  0
   -0.0940   -1.6135    0.3780 C   0  0  0  0  0  0  0  0  0  0  0  0
   -0.8394   -2.5236    1.1328 O   0  0  0  0  0  0  0  0  0  0  0  0
   -0.6973   -0.7332   -0.5123 C   0  0  0  0  0  0  0  0  0  0  0  0
   -2.1621   -0.6604   -0.4138 C   0  0  0  0  0  0  0  0  0  0  0  0
   -2.9341   -0.0671   -1.4054 C   0  0  0  0  0  0  0  0  0  0  0  0
   -4.0399    0.7191   -1.1037 C   0  0  0  0  0  0  0  0  0  0  0  0
   -4.3552    0.9938    0.2222 C   0  0  0  0  0  0  0  0  0  0  0  0
   -4.7382    2.2735    0.6382 O   0  0  0  0  0  0  0  0  0  0  0  0
   -3.9032    0.0345    1.1221 C   0  0  0  0  0  0  0  0  0  0  0  0
   -2.7588   -0.7023    0.8414 C   0  0  0  0  0  0  0  0  0  0  0  0
    0.0213    0.3153   -0.8525 O   0  0  0  0  0  0  0  0  0  0  0  0
    1.2240    0.5603   -0.4262 C   0  0  0  0  0  0  0  0  0  0  0  0
    1.9572    1.6391   -0.9032 C   0  0  0  0  0  0  0  0  0  0  0  0
    3.3143    1.7786   -0.6853 C   0  0  0  0  0  0  0  0  0  0  0  0
    4.1602    2.3883   -1.6179 O   0  0  0  0  0  0  0  0  0  0  0  0
    3.8232    1.0793    0.4026 C   0  0  0  0  0  0  0  0  0  0  0  0
    3.1540   -0.0521    0.8478 C   0  0  0  0  0  0  0  0  0  0  0  0
    3.7554   -0.9965    1.6671 O   0  0  0  0  0  0  0  0  0  0  0  0
    1.9332   -0.3977    0.2871 C   0  0  0  0  0  0  0  0  0  0  0  0
  1  2  2  0
  2  3  1  0
  3  4  1  0
  3  5  2  0
  5  6  1  0
  6  7  2  0
  7  8  1  0
  8  9  2  0
  9 10  1  0
  9 11  1  0
 11 12  2  0
  5 13  1  0
 13 14  1  0
 14 15  2  0
 15 16  1  0
 16 17  1  0
 16 18  2  0
 18 19  1  0
 19 20  1  0
 19 21  2  0
 21  2  1  0
 12  6  1  0
 21 14  1  0
M  END
>  <zinc_id>  (62) 
ZINC000003869768

>  <smiles>  (62) 
O=c1c(O)c(-c2ccc(O)cc2)oc2cc(O)cc(O)c12

$$$$

     RDKit          3D

 33 36  0  0  0  0  0  0  0  0999 V2000
    1.3487   -0.2677    0.4902 O   0  0  0  0  0  0  0  0  0  0  0  0
    1.4170   -0.3181    0.6446 C   0  0  0  0  0  0  0  0  0  0  0  0
    0.1804   -0.1587    0.4362 O   0  0  0  0  0  0  0  0  0  0  0  0
   -0.4077    0.0948   -0.9554 C   0  0  2  0  0  0  0  0  0  0  0  0
   -0.0489    1.6850   -0.9360 C   0  0  0  0  0  0  0  0  0  0  0  0
   -1.1488    2.4750   -0.4904 C   0  0  0  0  0  0  0  0  0  0  0  0
   -1.3569    3.7331   -1.0256 C   0  0  0  0  0  0  0  0  0  0  0  0
   -0.5193    4.2155   -2.0372 O   0  0  0  0  0  0  0  0  0  0  0  0
   -1.9653    4.6963   -0.2298 C   0  0  0  0  0  0  0  0  0  0  0  0
   -2.3363    4.4736    1.0793 C   0  0  0  0  0  0  0  0  0  0  0  0
   -2.6609    5.4942    1.9491 O   0  0  0  0  0  0  0  0  0  0  0  0
   -2.2636    3.1584    1.5353 C   0  0  0  0  0  0  0  0  0  0  0  0
   -1.6097    2.2000    0.7954 C   0  0  0  0  0  0  0  0  0  0  0  0
   -1.7727    0.8181    0.9472 O   0  0  0  0  0  0  0  0  0  0  0  0
   -2.0498    0.2244   -0.4413 C   0  0  2  0  0  0  0  0  0  0  0  0
   -2.0889   -1.2881    0.1166 C   0  0  0  0  0  0  0  0  0  0  0  0
   -1.5068   -2.2375   -0.7195 C   0  0  0  0  0  0  0  0  0  0  0  0
   -1.9866   -3.5162   -0.8635 C   0  0  0  0  0  0  0  0  0  0  0  0
   -1.1615   -4.6188   -1.0111 O   0  0  0  0  0  0  0  0  0  0  0  0
   -3.3311   -3.7145   -0.6358 C   0  0  0  0  0  0  0  0  0  0  0  0
   -3.9629   -4.6969   -1.4072 O   0  0  0  0  0  0  0  0  0  0  0  0
   -4.0527   -2.7302    0.0135 C   0  0  0  0  0  0  0  0  0  0  0  0
   -5.4345   -2.9187    0.0527 O   0  0  0  0  0  0  0  0  0  0  0  0
   -3.4231   -1.5759    0.4029 C   0  0  0  0  0  0  0  0  0  0  0  0
    2.7754   -0.2586    0.7638 C   0  0  0  0  0  0  0  0  0  0  0  0
    3.5403   -1.1875    1.4621 C   0  0  0  0  0  0  0  0  0  0  0  0
    4.8669   -1.3978    1.1127 C   0  0  0  0  0  0  0  0  0  0  0  0
    5.7419   -2.1357    1.8901 O   0  0  0  0  0  0  0  0  0  0  0  0
    5.4225   -0.7333    0.0256 C   0  0  0  0  0  0  0  0  0  0  0  0
    6.3481   -1.3939   -0.7730 O   0  0  0  0  0  0  0  0  0  0  0  0
    4.7389    0.3332   -0.5344 C   0  0  0  0  0  0  0  0  0  0  0  0
    5.1745    0.8597   -1.7280 O   0  0  0  0  0  0  0  0  0  0  0  0
    3.5334    0.6867    0.0708 C   0  0  0  0  0  0  0  0  0  0  0  0
  1  2  2  0
  2  3  1  0
  4  3  1  1
  4  5  1  0
  5  6  1  0
  6  7  2  0
  7  8  1  0
  7  9  1  0
  9 10  2  0
 10 11  1  0
 10 12  1  0
 12 13  2  0
 13 14  1  0
 14 15  1  0
 15 16  1  1
 16 17  2  0
 17 18  1  0
 18 19  1  0
 18 20  2  0
 20 21  1  0
 20 22  1  0
 22 23  1  0
 22 24  2  0
  2 25  1  0
 25 26  2  0
 26 27  1  0
 27 28  1  0
 27 29  2  0
 29 30  1  0
 29 31  1  0
 31 32  1  0
 31 33  2  0
 15  4  1  0
 24 16  1  0
 33 25  1  0
 13  6  1  0
M  END
>  <zinc_id>  (63) 
ZINC000003870412

>  <smiles>  (63) 
O=C(O[C@@H]1Cc2c(O)cc(O)cc2O[C@@H]1c1cc(O)c(O)c(O)c1)c1cc(O)c(O)c(O)c1

$$$$

     RDKit          3D

 22 25  0  0  0  0  0  0  0  0999 V2000
   -0.3234    3.6352   -0.4404 O   0  0  0  0  0  0  0  0  0  0  0  0
   -0.0171    2.4417   -0.2496 C   0  0  0  0  0  0  0  0  0  0  0  0
    1.1669    2.0768    0.2109 O   0  0  0  0  0  0  0  0  0  0  0  0
    1.6042    0.8571   -0.0119 C   0  0  0  0  0  0  0  0  0  0  0  0
    2.7961    0.4614    0.5799 C   0  0  0  0  0  0  0  0  0  0  0  0
    3.4984    1.2563    1.4556 O   0  0  0  0  0  0  0  0  0  0  0  0
    3.2245   -0.8388    0.3480 C   0  0  0  0  0  0  0  0  0  0  0  0
    4.5673   -1.1420    0.4055 O   0  0  0  0  0  0  0  0  0  0  0  0
    2.4051   -1.7497   -0.3063 C   0  0  0  0  0  0  0  0  0  0  0  0
    1.0735   -1.4415   -0.5594 C   0  0  0  0  0  0  0  0  0  0  0  0
    0.0728   -2.3925   -0.4398 C   0  0  0  0  0  0  0  0  0  0  0  0
    0.3884   -3.6050   -0.2583 O   0  0  0  0  0  0  0  0  0  0  0  0
   -1.1926   -2.0708   -0.2415 O   0  0  0  0  0  0  0  0  0  0  0  0
   -1.6167   -0.8247   -0.2543 C   0  0  0  0  0  0  0  0  0  0  0  0
   -2.9165   -0.5106    0.0767 C   0  0  0  0  0  0  0  0  0  0  0  0
   -3.6904   -1.4254    0.7954 O   0  0  0  0  0  0  0  0  0  0  0  0
   -3.2922    0.8219   -0.0429 C   0  0  0  0  0  0  0  0  0  0  0  0
   -4.4364    1.1853    0.6752 O   0  0  0  0  0  0  0  0  0  0  0  0
   -2.3454    1.7668   -0.4200 C   0  0  0  0  0  0  0  0  0  0  0  0
   -1.0003    1.4889   -0.4782 C   0  0  0  0  0  0  0  0  0  0  0  0
   -0.6565    0.1422   -0.5254 C   0  0  0  0  0  0  0  0  0  0  0  0
    0.6903   -0.1327   -0.3191 C   0  0  0  0  0  0  0  0  0  0  0  0
  1  2  2  0
  2  3  1  0
  3  4  1  0
  4  5  2  0
  5  6  1  0
  5  7  1  0
  7  8  1  0
  7  9  2  0
  9 10  1  0
 10 11  1  0
 11 12  2  0
 11 13  1  0
 13 14  1  0
 14 15  1  0
 15 16  1  0
 15 17  2  0
 17 18  1  0
 17 19  1  0
 19 20  2  0
 20 21  1  0
 21 22  1  0
 20  2  1  0
 22  4  1  0
 22 10  2  0
 21 14  2  0
M  END
>  <zinc_id>  (64) 
ZINC000003872446

>  <smiles>  (64) 
O=c1oc2c(O)c(O)cc3c(=O)oc4c(O)c(O)cc1c4c23

$$$$

     RDKit          3D

 21 21  0  0  0  0  0  0  0  0999 V2000
    4.7650    3.0375   -0.1941 C   0  0  0  0  0  0  0  0  0  0  0  0
    4.7287    2.0521    0.1962 C   0  0  0  0  0  0  0  0  0  0  0  0
    4.5619    0.8565   -0.7340 C   0  0  0  0  0  0  0  0  0  0  0  0
    5.3529   -0.2710   -0.0901 C   0  0  0  0  0  0  0  0  0  0  0  0
    4.4826   -1.4668    0.1796 C   0  0  0  0  0  0  0  0  0  0  0  0
    3.0154   -0.7990    0.6662 C   0  0  1  0  0  0  0  0  0  0  0  0
    2.5398   -0.7051   -0.8062 O   0  0  0  0  0  0  0  0  0  0  0  0
    2.3481   -2.3306    0.8607 C   0  0  0  0  0  0  0  0  0  0  0  0
    1.0307   -2.2661    0.2233 C   0  0  0  0  0  0  0  0  0  0  0  0
    0.9959   -2.6520   -0.9448 O   0  0  0  0  0  0  0  0  0  0  0  0
   -0.1255   -1.4716    0.6872 C   0  0  0  0  0  0  0  0  0  0  0  0
   -1.3042   -1.6366   -0.2194 C   0  0  0  0  0  0  0  0  0  0  0  0
   -2.0103   -0.3867   -0.5373 C   0  0  0  0  0  0  0  0  0  0  0  0
   -1.4022    0.8132   -0.8057 C   0  0  0  0  0  0  0  0  0  0  0  0
   -2.1241    1.9618   -0.5518 C   0  0  0  0  0  0  0  0  0  0  0  0
   -3.4949    1.9274   -0.3209 C   0  0  0  0  0  0  0  0  0  0  0  0
   -4.1237    2.9942    0.3147 O   0  0  0  0  0  0  0  0  0  0  0  0
   -4.1456    0.7139   -0.4287 C   0  0  0  0  0  0  0  0  0  0  0  0
   -5.5151    0.6561   -0.1513 O   0  0  0  0  0  0  0  0  0  0  0  0
   -6.1768   -0.6045   -0.0709 C   0  0  0  0  0  0  0  0  0  0  0  0
   -3.3984   -0.4227   -0.5891 C   0  0  0  0  0  0  0  0  0  0  0  0
  1  2  1  0
  2  3  1  0
  3  4  1  0
  4  5  1  0
  6  5  1  6
  6  7  1  0
  6  8  1  0
  8  9  1  0
  9 10  2  0
  9 11  1  0
 11 12  1  0
 12 13  1  0
 13 14  2  0
 14 15  1  0
 15 16  2  0
 16 17  1  0
 16 18  1  0
 18 19  1  0
 19 20  1  0
 18 21  2  0
 21 13  1  0
M  END
>  <zinc_id>  (65) 
ZINC000003872686

>  <smiles>  (65) 
CCCCC[C@@H](O)CC(=O)CCc1ccc(O)c(OC)c1

$$$$

     RDKit          3D

 23 25  0  0  0  0  0  0  0  0999 V2000
   -2.0492   -2.8244    0.3140 O   0  0  0  0  0  0  0  0  0  0  0  0
   -1.5629   -1.6557    0.2680 C   0  0  0  0  0  0  0  0  0  0  0  0
   -0.2356   -1.3890    0.5638 C   0  0  0  0  0  0  0  0  0  0  0  0
    0.4996   -2.3610    1.2269 O   0  0  0  0  0  0  0  0  0  0  0  0
    0.2709   -0.1122    0.5639 C   0  0  0  0  0  0  0  0  0  0  0  0
    1.7033    0.1097    0.4184 C   0  0  0  0  0  0  0  0  0  0  0  0
    2.6435   -0.8934    0.5888 C   0  0  0  0  0  0  0  0  0  0  0  0
    3.8317   -0.7436   -0.1152 C   0  0  0  0  0  0  0  0  0  0  0  0
    4.7616   -1.7624   -0.2379 O   0  0  0  0  0  0  0  0  0  0  0  0
    4.2000    0.4951   -0.6188 C   0  0  0  0  0  0  0  0  0  0  0  0
    5.4600    0.6907   -1.1888 O   0  0  0  0  0  0  0  0  0  0  0  0
    3.4412    1.6172   -0.3658 C   0  0  0  0  0  0  0  0  0  0  0  0
    3.6876    2.7376   -1.1644 O   0  0  0  0  0  0  0  0  0  0  0  0
    2.2053    1.3880    0.2218 C   0  0  0  0  0  0  0  0  0  0  0  0
   -0.5399    0.8546    0.2207 O   0  0  0  0  0  0  0  0  0  0  0  0
   -1.8017    0.6610   -0.0390 C   0  0  0  0  0  0  0  0  0  0  0  0
   -2.6579    1.7488   -0.0620 C   0  0  0  0  0  0  0  0  0  0  0  0
   -3.9955    1.6230    0.2891 C   0  0  0  0  0  0  0  0  0  0  0  0
   -4.7491    2.7003    0.7517 O   0  0  0  0  0  0  0  0  0  0  0  0
   -4.5840    0.4121   -0.0430 C   0  0  0  0  0  0  0  0  0  0  0  0
   -3.7780   -0.7156    0.0190 C   0  0  0  0  0  0  0  0  0  0  0  0
   -4.3542   -1.9872    0.0308 O   0  0  0  0  0  0  0  0  0  0  0  0
   -2.3965   -0.5937   -0.0646 C   0  0  0  0  0  0  0  0  0  0  0  0
  1  2  2  0
  2  3  1  0
  3  4  1  0
  3  5  2  0
  5  6  1  0
  6  7  2  0
  7  8  1  0
  8  9  1  0
  8 10  2  0
 10 11  1  0
 10 12  1  0
 12 13  1  0
 12 14  2  0
  5 15  1  0
 15 16  1  0
 16 17  2  0
 17 18  1  0
 18 19  1  0
 18 20  2  0
 20 21  1  0
 21 22  1  0
 21 23  2  0
 23  2  1  0
 14  6  1  0
 23 16  1  0
M  END
>  <zinc_id>  (66) 
ZINC000003874317

>  <smiles>  (66) 
O=c1c(O)c(-c2cc(O)c(O)c(O)c2)oc2cc(O)cc(O)c12

$$$$

     RDKit          3D

 28 31  0  0  0  0  0  0  0  0999 V2000
   -1.3365   -1.4552   -2.1935 C   0  0  0  0  0  0  0  0  0  0  0  0
   -1.6082   -0.5729   -1.6460 C   0  0  0  0  0  0  0  0  0  0  0  0
   -2.1510    0.7561   -2.1021 C   0  0  0  0  0  0  0  0  0  0  0  0
   -3.3198    1.0334   -1.2872 C   0  0  0  0  0  0  0  0  0  0  0  0
   -2.9583    1.2329    0.2949 C   0  0  1  0  0  0  0  0  0  0  0  0
   -4.3666    0.9080    0.9628 C   0  0  0  0  0  0  0  0  0  0  0  0
   -4.2310    0.3385    2.3159 C   0  0  0  0  0  0  0  0  0  0  0  0
   -5.1243    2.2125    1.1267 C   0  0  0  0  0  0  0  0  0  0  0  0
   -5.3901   -0.1101    0.2484 C   0  0  1  0  0  0  0  0  0  0  0  0
   -5.6404    0.8115   -0.9449 O   0  0  0  0  0  0  0  0  0  0  0  0
   -4.3498   -1.0868   -0.5802 C   0  0  0  0  0  0  0  0  0  0  0  0
   -3.1424   -1.3070    0.1819 C   0  0  0  0  0  0  0  0  0  0  0  0
   -2.3166   -0.2457    0.5604 C   0  0  2  0  0  0  0  0  0  0  0  0
   -1.7405   -0.2374    1.9596 C   0  0  0  0  0  0  0  0  0  0  0  0
   -0.9173   -0.1242   -0.2640 C   0  0  1  0  0  0  0  0  0  0  0  0
   -0.4407   -1.6400    0.1181 C   0  0  0  0  0  0  0  0  0  0  0  0
    0.7714   -1.6228   -0.6409 O   0  0  0  0  0  0  0  0  0  0  0  0
    1.8428   -0.8845   -0.1673 C   0  0  0  0  0  0  0  0  0  0  0  0
    1.9416   -0.4344    1.1327 C   0  0  0  0  0  0  0  0  0  0  0  0
    2.8035    0.6285    1.3619 C   0  0  0  0  0  0  0  0  0  0  0  0
    4.0464    0.5455    0.7649 C   0  0  0  0  0  0  0  0  0  0  0  0
    5.1614    1.2022    1.2644 C   0  0  0  0  0  0  0  0  0  0  0  0
    6.3532    0.9571    0.5985 C   0  0  0  0  0  0  0  0  0  0  0  0
    6.3622    0.1557   -0.5295 C   0  0  0  0  0  0  0  0  0  0  0  0
    7.4720   -0.1453   -1.0227 O   0  0  0  0  0  0  0  0  0  0  0  0
    5.2164   -0.0427   -1.1237 O   0  0  0  0  0  0  0  0  0  0  0  0
    4.1115   -0.1748   -0.4218 C   0  0  0  0  0  0  0  0  0  0  0  0
    2.9513   -0.6982   -0.9790 C   0  0  0  0  0  0  0  0  0  0  0  0
  1  2  2  0
  2  3  1  0
  3  4  1  0
  5  4  1  6
  5  6  1  0
  6  7  1  0
  6  8  1  0
  6  9  1  0
  9 10  1  6
  9 11  1  0
 11 12  1  0
 12 13  1  0
 13 14  1  1
 13 15  1  0
 15 16  1  1
 16 17  1  0
 17 18  1  0
 18 19  2  0
 19 20  1  0
 20 21  2  0
 21 22  1  0
 22 23  2  0
 23 24  1  0
 24 25  2  0
 24 26  1  0
 26 27  1  0
 27 28  2  0
 15  2  1  0
 28 18  1  0
 13  5  1  0
 27 21  1  0
M  END
>  <zinc_id>  (67) 
ZINC000003947419

>  <smiles>  (67) 
C=C1CC[C@H]2C(C)(C)[C@@H](O)CC[C@@]2(C)[C@H]1COc1ccc2ccc(=O)oc2c1

$$$$

     RDKit          3D

 28 31  0  0  0  0  0  0  0  0999 V2000
   -1.1365   -2.0145   -2.3342 C   0  0  0  0  0  0  0  0  0  0  0  0
   -1.2908   -1.6679   -1.6705 C   0  0  0  0  0  0  0  0  0  0  0  0
   -1.5286   -2.2006   -0.3262 C   0  0  0  0  0  0  0  0  0  0  0  0
   -2.6641   -1.6030    0.4819 C   0  0  0  0  0  0  0  0  0  0  0  0
   -2.4068    0.0344    0.3774 C   0  0  2  0  0  0  0  0  0  0  0  0
   -3.7439    0.5034    1.1099 C   0  0  0  0  0  0  0  0  0  0  0  0
   -3.0817    1.5775    2.0194 C   0  0  0  0  0  0  0  0  0  0  0  0
   -4.3299   -0.4186    1.9376 C   0  0  0  0  0  0  0  0  0  0  0  0
   -4.5874    1.6867    0.4272 C   0  0  2  0  0  0  0  0  0  0  0  0
   -5.8722    1.1642    1.0758 O   0  0  0  0  0  0  0  0  0  0  0  0
   -4.9002    0.8865   -0.9828 C   0  0  0  0  0  0  0  0  0  0  0  0
   -3.5301    1.1619   -1.6221 C   0  0  0  0  0  0  0  0  0  0  0  0
   -2.7972    0.0336   -1.1930 C   0  0  2  0  0  0  0  0  0  0  0  0
   -3.5920   -1.1163   -1.6370 C   0  0  0  0  0  0  0  0  0  0  0  0
   -1.2981   -0.0573   -1.8493 C   0  0  1  0  0  0  0  0  0  0  0  0
   -0.3492    0.1972   -0.5344 C   0  0  0  0  0  0  0  0  0  0  0  0
    0.5721   -0.7794   -0.4657 O   0  0  0  0  0  0  0  0  0  0  0  0
    1.9296   -0.8421   -0.5744 C   0  0  0  0  0  0  0  0  0  0  0  0
    2.4766   -0.0801   -1.6073 C   0  0  0  0  0  0  0  0  0  0  0  0
    3.6369    0.6673   -1.4559 C   0  0  0  0  0  0  0  0  0  0  0  0
    4.0911    0.8326   -0.1518 C   0  0  0  0  0  0  0  0  0  0  0  0
    5.0986    1.7054    0.1390 C   0  0  0  0  0  0  0  0  0  0  0  0
    6.0327    1.3503    1.0847 C   0  0  0  0  0  0  0  0  0  0  0  0
    5.6813    0.2957    1.9190 C   0  0  0  0  0  0  0  0  0  0  0  0
    6.5898   -0.2519    2.6142 O   0  0  0  0  0  0  0  0  0  0  0  0
    4.5009   -0.2561    1.8687 O   0  0  0  0  0  0  0  0  0  0  0  0
    3.7767   -0.1412    0.7928 C   0  0  0  0  0  0  0  0  0  0  0  0
    2.7224   -1.0271    0.5570 C   0  0  0  0  0  0  0  0  0  0  0  0
  1  2  2  0
  2  3  1  0
  3  4  1  0
  5  4  1  1
  5  6  1  0
  6  7  1  0
  6  8  1  0
  6  9  1  0
  9 10  1  1
  9 11  1  0
 11 12  1  0
 12 13  1  0
 13 14  1  1
 13 15  1  0
 15 16  1  1
 16 17  1  0
 17 18  1  0
 18 19  2  0
 19 20  1  0
 20 21  2  0
 21 22  1  0
 22 23  2  0
 23 24  1  0
 24 25  2  0
 24 26  1  0
 26 27  1  0
 27 28  2  0
 15  2  1  0
 28 18  1  0
 13  5  1  0
 27 21  1  0
M  END
>  <zinc_id>  (68) 
ZINC000004081322

>  <smiles>  (68) 
C=C1CC[C@@H]2C(C)(C)[C@H](O)CC[C@@]2(C)[C@H]1COc1ccc2ccc(=O)oc2c1

$$$$

     RDKit          3D

 30 33  0  0  0  0  0  0  0  0999 V2000
    5.8427   -1.6669    0.4576 C   0  0  0  0  0  0  0  0  0  0  0  0
    6.2003   -1.0838    0.3800 C   0  0  0  0  0  0  0  0  0  0  0  0
    5.5552    0.3948    0.6162 C   0  0  2  0  0  0  0  0  0  0  0  0
    4.5100    0.2298   -0.6320 C   0  0  0  0  0  0  0  0  0  0  0  0
    3.4512    1.1609   -0.1092 C   0  0  0  0  0  0  0  0  0  0  0  0
    2.4542    0.1528    0.6783 C   0  0  1  0  0  0  0  0  0  0  0  0
    2.4297    1.0626    2.0191 C   0  0  0  0  0  0  0  0  0  0  0  0
    1.1132    0.9495    0.0150 C   0  0  1  0  0  0  0  0  0  0  0  0
    1.4878    0.4223   -1.4770 C   0  0  0  0  0  0  0  0  0  0  0  0
    0.4405   -0.5760   -1.8297 C   0  0  0  0  0  0  0  0  0  0  0  0
   -0.7079    0.1795   -0.9813 C   0  0  1  0  0  0  0  0  0  0  0  0
   -1.7363   -1.1522   -0.8399 C   0  0  2  0  0  0  0  0  0  0  0  0
   -2.4184   -0.8813   -2.2677 C   0  0  0  0  0  0  0  0  0  0  0  0
   -3.7371   -0.2889   -2.1258 C   0  0  0  0  0  0  0  0  0  0  0  0
   -4.5974   -0.5800   -1.1715 C   0  0  0  0  0  0  0  0  0  0  0  0
   -5.9338   -0.0482   -0.9478 C   0  0  0  0  0  0  0  0  0  0  0  0
   -5.7796    1.4231   -0.2054 C   0  0  1  0  0  0  0  0  0  0  0  0
   -7.0711    1.2419    0.5808 O   0  0  0  0  0  0  0  0  0  0  0  0
   -4.8534    0.9076    1.0580 C   0  0  0  0  0  0  0  0  0  0  0  0
   -4.8823   -0.5565    1.1835 C   0  0  0  0  0  0  0  0  0  0  0  0
   -3.9718   -1.0987    0.0939 C   0  0  1  0  0  0  0  0  0  0  0  0
   -3.6230   -2.4857    0.1313 C   0  0  0  0  0  0  0  0  0  0  0  0
   -2.6947   -0.1107    0.0903 C   0  0  1  0  0  0  0  0  0  0  0  0
   -2.0444   -0.6785    1.4666 C   0  0  0  0  0  0  0  0  0  0  0  0
   -0.7527    0.1406    1.5329 C   0  0  0  0  0  0  0  0  0  0  0  0
    0.0774   -0.2319    0.3783 C   0  0  2  0  0  0  0  0  0  0  0  0
    0.6567   -1.5421    0.2929 C   0  0  0  0  0  0  0  0  0  0  0  0
    6.6821    1.1140   -0.3269 C   0  0  0  0  0  0  0  0  0  0  0  0
    6.0397    2.4954   -0.4114 C   0  0  0  0  0  0  0  0  0  0  0  0
    7.8629    1.1068    0.6163 C   0  0  0  0  0  0  0  0  0  0  0  0
  1  2  1  0
  3  2  1  6
  3  4  1  0
  4  5  1  0
  6  5  1  6
  6  7  1  0
  6  8  1  0
  8  9  1  6
  9 10  1  0
 11 10  1  6
 11 12  1  0
 12 13  1  6
 13 14  1  0
 14 15  2  0
 15 16  1  0
 16 17  1  0
 17 18  1  1
 17 19  1  0
 19 20  1  0
 20 21  1  0
 21 22  1  6
 21 23  1  0
 23 24  1  1
 24 25  1  0
 25 26  1  0
 26 27  1  6
  3 28  1  0
 28 29  1  0
 28 30  1  0
 26  8  1  0
 26 11  1  0
 23 12  1  0
 21 15  1  0
M  END
>  <zinc_id>  (69) 
ZINC000004095717

>  <smiles>  (69) 
CC[C@H](CC[C@@H](C)[C@H]1CC[C@H]2[C@@H]3CC=C4C[C@@H](O)CC[C@]4(C)[C@H]3CC[C@@]21C)C(C)C

$$$$

     RDKit          3D

 29 32  0  0  0  0  0  0  0  0999 V2000
    5.4376   -1.0012    0.2619 C   0  0  0  0  0  0  0  0  0  0  0  0
    5.7023   -0.7153    0.0980 C   0  0  0  0  0  0  0  0  0  0  0  0
    7.1747   -0.8253    0.4231 C   0  0  0  0  0  0  0  0  0  0  0  0
    5.6289   -0.5257   -1.5319 C   0  0  2  0  0  0  0  0  0  0  0  0
    6.7688    0.6553   -1.5397 C   0  0  0  0  0  0  0  0  0  0  0  0
    4.4123    0.5702   -1.4164 C   0  0  0  0  0  0  0  0  0  0  0  0
    3.3325   -0.1049   -0.7259 C   0  0  0  0  0  0  0  0  0  0  0  0
    2.8664    0.6333    0.6383 C   0  0  1  0  0  0  0  0  0  0  0  0
    3.6874    2.0198    0.3666 C   0  0  0  0  0  0  0  0  0  0  0  0
    1.4287    1.3839    0.0682 C   0  0  1  0  0  0  0  0  0  0  0  0
    1.7314    1.2446   -1.5280 C   0  0  0  0  0  0  0  0  0  0  0  0
    0.6744    0.3618   -2.0606 C   0  0  0  0  0  0  0  0  0  0  0  0
   -0.4409    0.8188   -0.9692 C   0  0  1  0  0  0  0  0  0  0  0  0
   -1.4189   -0.5412   -1.2053 C   0  0  2  0  0  0  0  0  0  0  0  0
   -2.1690    0.1656   -2.4367 C   0  0  0  0  0  0  0  0  0  0  0  0
   -3.5919   -0.0679   -2.3586 C   0  0  0  0  0  0  0  0  0  0  0  0
   -4.3268   -0.5401   -1.3673 C   0  0  0  0  0  0  0  0  0  0  0  0
   -5.5683    0.2942   -1.1695 C   0  0  0  0  0  0  0  0  0  0  0  0
   -5.2221    1.0199    0.2865 C   0  0  1  0  0  0  0  0  0  0  0  0
   -6.6537    1.5496    0.4153 O   0  0  0  0  0  0  0  0  0  0  0  0
   -5.6084   -0.3808    1.0954 C   0  0  0  0  0  0  0  0  0  0  0  0
   -4.3175   -1.1289    1.0725 C   0  0  0  0  0  0  0  0  0  0  0  0
   -3.5728   -1.1069   -0.2114 C   0  0  1  0  0  0  0  0  0  0  0  0
   -2.8860   -2.3806   -0.4529 C   0  0  0  0  0  0  0  0  0  0  0  0
   -2.4775    0.0845   -0.0386 C   0  0  1  0  0  0  0  0  0  0  0  0
   -1.6443   -0.6576    1.1528 C   0  0  0  0  0  0  0  0  0  0  0  0
   -0.4011    0.2052    1.3717 C   0  0  0  0  0  0  0  0  0  0  0  0
    0.4543    0.0904    0.1827 C   0  0  2  0  0  0  0  0  0  0  0  0
    0.9995   -1.1206   -0.2594 C   0  0  0  0  0  0  0  0  0  0  0  0
  1  2  1  0
  2  3  1  0
  4  2  1  1
  4  5  1  0
  4  6  1  0
  6  7  1  0
  8  7  1  6
  8  9  1  0
  8 10  1  0
 10 11  1  6
 11 12  1  0
 13 12  1  6
 13 14  1  0
 14 15  1  6
 15 16  1  0
 16 17  2  0
 17 18  1  0
 18 19  1  0
 19 20  1  1
 19 21  1  0
 21 22  1  0
 22 23  1  0
 23 24  1  6
 23 25  1  0
 25 26  1  1
 26 27  1  0
 27 28  1  0
 28 29  1  6
 28 10  1  0
 28 13  1  0
 25 14  1  0
 23 17  1  0
M  END
>  <zinc_id>  (70) 
ZINC000004095721

>  <smiles>  (70) 
CC(C)[C@H](C)CC[C@@H](C)[C@H]1CC[C@H]2[C@@H]3CC=C4C[C@@H](O)CC[C@]4(C)[C@H]3CC[C@@]21C

$$$$

     RDKit          3D

 30 33  0  0  0  0  0  0  0  0999 V2000
    6.4830    0.6841    0.8654 C   0  0  0  0  0  0  0  0  0  0  0  0
    6.5079    0.6870    0.3505 C   0  0  0  0  0  0  0  0  0  0  0  0
    5.7252   -0.1704   -0.8055 C   0  0  2  0  0  0  0  0  0  0  0  0
    4.3890   -0.2851    0.0998 C   0  0  0  0  0  0  0  0  0  0  0  0
    3.8652    0.9225    0.0519 C   0  0  0  0  0  0  0  0  0  0  0  0
    2.4689    1.2151    0.7560 C   0  0  1  0  0  0  0  0  0  0  0  0
    2.4531    2.7664    0.2710 C   0  0  0  0  0  0  0  0  0  0  0  0
    1.6091    0.7133   -0.6256 C   0  0  1  0  0  0  0  0  0  0  0  0
    1.7182   -0.8240   -0.1028 C   0  0  0  0  0  0  0  0  0  0  0  0
    0.7079   -0.8475    1.0475 C   0  0  0  0  0  0  0  0  0  0  0  0
   -0.4109   -0.5012   -0.0755 C   0  0  1  0  0  0  0  0  0  0  0  0
   -1.6804   -0.1227    0.9672 C   0  0  2  0  0  0  0  0  0  0  0  0
   -2.0742   -1.6629    1.1557 C   0  0  0  0  0  0  0  0  0  0  0  0
   -3.4872   -1.8609    0.9967 C   0  0  0  0  0  0  0  0  0  0  0  0
   -4.4313   -1.0444    0.5826 C   0  0  0  0  0  0  0  0  0  0  0  0
   -5.4792   -1.7316   -0.1556 C   0  0  0  0  0  0  0  0  0  0  0  0
   -6.7517   -0.7205   -0.3933 C   0  0  1  0  0  0  0  0  0  0  0  0
   -6.5375    0.0377    0.9084 O   0  0  0  0  0  0  0  0  0  0  0  0
   -5.8626    0.3175   -1.3143 C   0  0  0  0  0  0  0  0  0  0  0  0
   -4.9263    1.0744   -0.5175 C   0  0  0  0  0  0  0  0  0  0  0  0
   -3.9867    0.3725    0.3756 C   0  0  1  0  0  0  0  0  0  0  0  0
   -3.7310    1.1322    1.6007 C   0  0  0  0  0  0  0  0  0  0  0  0
   -2.6155    0.0719   -0.4264 C   0  0  1  0  0  0  0  0  0  0  0  0
   -2.1520    1.6219   -0.5736 C   0  0  0  0  0  0  0  0  0  0  0  0
   -0.7251    1.6051   -1.1276 C   0  0  0  0  0  0  0  0  0  0  0  0
    0.1318    1.0223   -0.0673 C   0  0  2  0  0  0  0  0  0  0  0  0
    0.1104    1.6005    1.2487 C   0  0  0  0  0  0  0  0  0  0  0  0
    6.3826   -1.5772   -0.3142 C   0  0  0  0  0  0  0  0  0  0  0  0
    5.9347   -1.9651    0.9959 C   0  0  0  0  0  0  0  0  0  0  0  0
    6.3643   -2.5309   -1.4368 C   0  0  0  0  0  0  0  0  0  0  0  0
  1  2  1  0
  3  2  1  1
  3  4  1  0
  4  5  2  0
  6  5  1  6
  6  7  1  0
  6  8  1  0
  8  9  1  1
  9 10  1  0
 11 10  1  1
 11 12  1  0
 12 13  1  1
 13 14  1  0
 14 15  2  0
 15 16  1  0
 16 17  1  0
 17 18  1  1
 17 19  1  0
 19 20  1  0
 20 21  1  0
 21 22  1  1
 21 23  1  0
 23 24  1  6
 24 25  1  0
 25 26  1  0
 26 27  1  1
  3 28  1  0
 28 29  1  0
 28 30  1  0
 26  8  1  0
 26 11  1  0
 23 12  1  0
 21 15  1  0
M  END
>  <zinc_id>  (71) 
ZINC000004096712

>  <smiles>  (71) 
CC[C@H](/C=C/[C@@H](C)[C@H]1CC[C@H]2[C@@H]3CC=C4C[C@@H](O)CC[C@]4(C)[C@H]3CC[C@@]21C)C(C)C

$$$$

     RDKit          3D

 43 47  0  0  0  0  0  0  0  0999 V2000
    7.7993    1.6410   -0.9794 C   0  0  0  0  0  0  0  0  0  0  0  0
    7.5260    0.7453    0.3820 C   0  0  2  0  0  0  0  0  0  0  0  0
    6.2365    0.1416   -0.1660 O   0  0  0  0  0  0  0  0  0  0  0  0
    5.3403    0.3167    1.0854 C   0  0  1  0  0  0  0  0  0  0  0  0
    4.7316   -1.0976    0.9632 O   0  0  0  0  0  0  0  0  0  0  0  0
    3.4970   -0.6095    0.5032 C   0  0  0  0  0  0  0  0  0  0  0  0
    2.3917   -1.7969    0.7848 C   0  0  1  0  0  0  0  0  0  0  0  0
    1.2309   -0.8310    0.5612 O   0  0  0  0  0  0  0  0  0  0  0  0
    0.0690   -1.8185    0.8268 C   0  0  1  0  0  0  0  0  0  0  0  0
   -0.9844   -0.6838    0.7873 O   0  0  0  0  0  0  0  0  0  0  0  0
   -1.9671   -0.5390   -0.0832 C   0  0  0  0  0  0  0  0  0  0  0  0
   -3.1153   -1.3488   -0.0620 C   0  0  0  0  0  0  0  0  0  0  0  0
   -3.4487   -1.9966    0.9789 O   0  0  0  0  0  0  0  0  0  0  0  0
   -4.0147   -1.1612   -1.1030 C   0  0  0  0  0  0  0  0  0  0  0  0
   -5.3483   -1.4980   -0.9002 C   0  0  0  0  0  0  0  0  0  0  0  0
   -5.5976   -2.4520    0.0902 O   0  0  0  0  0  0  0  0  0  0  0  0
   -6.3473   -1.1223   -1.7671 C   0  0  0  0  0  0  0  0  0  0  0  0
   -5.9624   -0.2890   -2.8088 C   0  0  0  0  0  0  0  0  0  0  0  0
   -6.8868   -0.1617   -3.8477 O   0  0  0  0  0  0  0  0  0  0  0  0
   -4.6867    0.2423   -2.8858 C   0  0  0  0  0  0  0  0  0  0  0  0
   -3.7800   -0.0478   -1.8970 C   0  0  0  0  0  0  0  0  0  0  0  0
   -2.8653    0.8614   -1.5961 O   0  0  0  0  0  0  0  0  0  0  0  0
   -2.1529    0.7958   -0.4755 C   0  0  0  0  0  0  0  0  0  0  0  0
   -2.0708    1.9376    0.4654 C   0  0  0  0  0  0  0  0  0  0  0  0
   -2.1796    1.8096    1.8492 C   0  0  0  0  0  0  0  0  0  0  0  0
   -3.3061    2.2648    2.5413 C   0  0  0  0  0  0  0  0  0  0  0  0
   -4.2176    3.1091    1.9190 C   0  0  0  0  0  0  0  0  0  0  0  0
   -5.6041    2.9383    2.0145 O   0  0  0  0  0  0  0  0  0  0  0  0
   -3.6306    3.7837    0.8534 C   0  0  0  0  0  0  0  0  0  0  0  0
   -4.4359    4.8001    0.3242 O   0  0  0  0  0  0  0  0  0  0  0  0
   -2.6404    3.1540    0.0955 C   0  0  0  0  0  0  0  0  0  0  0  0
   -0.0241   -2.1883   -0.8781 C   0  0  2  0  0  0  0  0  0  0  0  0
   -1.0443   -3.2738   -0.7016 O   0  0  0  0  0  0  0  0  0  0  0  0
    1.1782   -3.3909   -0.6408 C   0  0  1  0  0  0  0  0  0  0  0  0
    1.1549   -3.7762   -2.1000 O   0  0  0  0  0  0  0  0  0  0  0  0
    2.4295   -2.2465   -0.8878 C   0  0  2  0  0  0  0  0  0  0  0  0
    3.4770   -3.2939   -0.6235 O   0  0  0  0  0  0  0  0  0  0  0  0
    6.6104   -0.2430    2.1491 C   0  0  2  0  0  0  0  0  0  0  0  0
    5.6799   -0.6256    3.2623 O   0  0  0  0  0  0  0  0  0  0  0  0
    6.9179    1.3616    2.6998 C   0  0  2  0  0  0  0  0  0  0  0  0
    5.4905    1.6458    3.1019 O   0  0  0  0  0  0  0  0  0  0  0  0
    6.6620    2.0421    1.1382 C   0  0  1  0  0  0  0  0  0  0  0  0
    7.8883    2.9012    1.2319 O   0  0  0  0  0  0  0  0  0  0  0  0
  2  1  1  6
  2  3  1  0
  3  4  1  0
  4  5  1  6
  5  6  1  0
  7  6  1  6
  7  8  1  0
  8  9  1  0
  9 10  1  6
 10 11  1  0
 11 12  1  0
 12 13  2  0
 12 14  1  0
 14 15  2  0
 15 16  1  0
 15 17  1  0
 17 18  2  0
 18 19  1  0
 18 20  1  0
 20 21  2  0
 21 22  1  0
 22 23  1  0
 23 24  1  0
 24 25  2  0
 25 26  1  0
 26 27  2  0
 27 28  1  0
 27 29  1  0
 29 30  1  0
 29 31  2  0
  9 32  1  0
 32 33  1  1
 32 34  1  0
 34 35  1  6
 34 36  1  0
 36 37  1  1
  4 38  1  0
 38 39  1  1
 38 40  1  0
 40 41  1  1
 40 42  1  0
 42 43  1  1
 42  2  1  0
 36  7  1  0
 23 11  2  0
 31 24  1  0
 21 14  1  0
M  END
>  <zinc_id>  (72) 
ZINC000004096846

>  <smiles>  (72) 
C[C@@H]1O[C@@H](OC[C@H]2O[C@@H](Oc3c(-c4ccc(O)c(O)c4)oc4cc(O)cc(O)c4c3=O)[C@H](O)[C@@H](O)[C@@H]2O)[C@H](O)[C@H](O)[C@H]1O

$$$$

     RDKit          3D

 21 22  0  0  0  0  0  0  0  0999 V2000
    5.1768    1.7919   -1.0359 C   0  0  0  0  0  0  0  0  0  0  0  0
    4.9526    0.9595   -0.7046 C   0  0  0  0  0  0  0  0  0  0  0  0
    3.8399    0.6336    0.1970 C   0  0  0  0  0  0  0  0  0  0  0  0
    3.5946    1.5499    1.1346 C   0  0  0  0  0  0  0  0  0  0  0  0
    2.7729   -0.2348   -0.3604 C   0  0  0  0  0  0  0  0  0  0  0  0
    1.4433    0.1916    0.2499 C   0  0  0  0  0  0  0  0  0  0  0  0
    0.3159   -0.2890   -0.8297 C   0  0  1  0  0  0  0  0  0  0  0  0
    0.2737   -1.8368   -0.3486 C   0  0  1  0  0  0  0  0  0  0  0  0
    1.2176   -2.4363   -1.3993 C   0  0  0  0  0  0  0  0  0  0  0  0
    0.8678   -2.0381    0.8318 O   0  0  0  0  0  0  0  0  0  0  0  0
   -1.0366   -2.4282   -0.6198 C   0  0  0  0  0  0  0  0  0  0  0  0
   -2.2502   -1.7290   -0.1367 C   0  0  0  0  0  0  0  0  0  0  0  0
   -2.1032   -0.2762   -0.8688 C   0  0  1  0  0  0  0  0  0  0  0  0
   -3.3157    0.4209   -0.0417 C   0  0  0  0  0  0  0  0  0  0  0  0
   -4.5006    0.0389   -0.9279 C   0  0  0  0  0  0  0  0  0  0  0  0
   -3.5227   -0.1643    1.2668 C   0  0  0  0  0  0  0  0  0  0  0  0
   -3.1725    1.8952   -0.1437 C   0  0  0  0  0  0  0  0  0  0  0  0
   -1.9645    2.4187    0.5823 C   0  0  0  0  0  0  0  0  0  0  0  0
   -0.7833    1.6985   -0.0078 C   0  0  0  0  0  0  0  0  0  0  0  0
   -0.9129    0.2207    0.1153 C   0  0  2  0  0  0  0  0  0  0  0  0
   -0.8929   -0.3868    1.3967 C   0  0  0  0  0  0  0  0  0  0  0  0
  1  2  2  0
  2  3  1  0
  3  4  2  0
  3  5  1  0
  5  6  1  0
  7  6  1  1
  7  8  1  0
  8  9  1  6
  8 10  1  0
  8 11  1  0
 11 12  1  0
 13 12  1  1
 13 14  1  0
 14 15  1  0
 14 16  1  0
 14 17  1  0
 17 18  1  0
 18 19  1  0
 19 20  1  0
 20 21  1  1
 20  7  1  0
 20 13  1  0
M  END
>  <zinc_id>  (73) 
ZINC000004369791

>  <smiles>  (73) 
C=CC(=C)CC[C@H]1[C@@](C)(O)CC[C@H]2C(C)(C)CCC[C@@]21C

$$$$

     RDKit          3D

 34 35  0  0  0  0  0  0  0  0999 V2000
    2.3016   -1.4547   -1.1997 O   0  0  0  0  0  0  0  0  0  0  0  0
    2.1851   -0.9940   -1.1599 C   0  0  0  0  0  0  0  0  0  0  0  0
    3.1869    0.0870   -1.1847 C   0  0  0  0  0  0  0  0  0  0  0  0
    4.4330   -0.3530   -0.9879 C   0  0  0  0  0  0  0  0  0  0  0  0
    5.5048    0.4348   -0.4315 C   0  0  0  0  0  0  0  0  0  0  0  0
    6.7882   -0.0823   -0.5723 C   0  0  0  0  0  0  0  0  0  0  0  0
    7.8634    0.7916   -0.4602 C   0  0  0  0  0  0  0  0  0  0  0  0
    7.6226    2.1056   -0.0784 C   0  0  0  0  0  0  0  0  0  0  0  0
    8.4580    3.1571   -0.4423 O   0  0  0  0  0  0  0  0  0  0  0  0
    6.4386    2.3131    0.6102 C   0  0  0  0  0  0  0  0  0  0  0  0
    6.2531    3.4948    1.2977 O   0  0  0  0  0  0  0  0  0  0  0  0
    5.3535    1.4616    0.4576 C   0  0  0  0  0  0  0  0  0  0  0  0
    0.8395   -0.8073   -0.8104 O   0  0  0  0  0  0  0  0  0  0  0  0
    0.4363   -1.5493    0.4744 C   0  0  2  0  0  0  0  0  0  0  0  0
    0.9557   -2.9723   -0.0683 C   0  0  0  0  0  0  0  0  0  0  0  0
    2.0055   -3.3403    0.4536 O   0  0  0  0  0  0  0  0  0  0  0  0
    0.5596   -3.3846   -1.2992 O   0  0  0  0  0  0  0  0  0  0  0  0
   -1.1687   -1.7948   -0.1127 C   0  0  2  0  0  0  0  0  0  0  0  0
   -1.7761   -1.0144    1.0624 O   0  0  0  0  0  0  0  0  0  0  0  0
   -1.9287    0.3337    0.8929 C   0  0  0  0  0  0  0  0  0  0  0  0
   -0.9131    0.9407    0.5138 O   0  0  0  0  0  0  0  0  0  0  0  0
   -3.1926    1.0493    0.8501 C   0  0  0  0  0  0  0  0  0  0  0  0
   -3.5612    1.5994   -0.3080 C   0  0  0  0  0  0  0  0  0  0  0  0
   -4.9830    1.6931   -0.6702 C   0  0  0  0  0  0  0  0  0  0  0  0
   -5.5597    0.6314   -1.3588 C   0  0  0  0  0  0  0  0  0  0  0  0
   -6.8501    0.1956   -1.0751 C   0  0  0  0  0  0  0  0  0  0  0  0
   -7.5927    0.8042   -0.0779 C   0  0  0  0  0  0  0  0  0  0  0  0
   -8.4468    0.0658    0.7422 O   0  0  0  0  0  0  0  0  0  0  0  0
   -7.1706    2.0698    0.3107 C   0  0  0  0  0  0  0  0  0  0  0  0
   -7.8667    2.6816    1.3613 O   0  0  0  0  0  0  0  0  0  0  0  0
   -5.8706    2.4819    0.0544 C   0  0  0  0  0  0  0  0  0  0  0  0
   -1.3483   -3.1906    0.6703 C   0  0  0  0  0  0  0  0  0  0  0  0
   -0.8783   -3.2936    1.8028 O   0  0  0  0  0  0  0  0  0  0  0  0
   -2.0781   -4.1609    0.0433 O   0  0  0  0  0  0  0  0  0  0  0  0
  1  2  2  0
  2  3  1  0
  3  4  2  0
  4  5  1  0
  5  6  2  0
  6  7  1  0
  7  8  2  0
  8  9  1  0
  8 10  1  0
 10 11  1  0
 10 12  2  0
  2 13  1  0
 14 13  1  6
 14 15  1  0
 15 16  2  0
 15 17  1  0
 14 18  1  0
 18 19  1  1
 19 20  1  0
 20 21  2  0
 20 22  1  0
 22 23  2  0
 23 24  1  0
 24 25  2  0
 25 26  1  0
 26 27  2  0
 27 28  1  0
 27 29  1  0
 29 30  1  0
 29 31  2  0
 18 32  1  0
 32 33  2  0
 32 34  1  0
 12  5  1  0
 31 24  1  0
M  END
>  <zinc_id>  (74) 
ZINC000004424205

>  <smiles>  (74) 
O=C(/C=C/c1ccc(O)c(O)c1)O[C@H](C(=O)O)[C@H](OC(=O)/C=C/c1ccc(O)c(O)c1)C(=O)O

$$$$

     RDKit          3D

 11 11  0  0  0  0  0  0  0  0999 V2000
   -2.7026   -0.0954   -0.0033 C   0  0  0  0  0  0  0  0  0  0  0  0
   -2.5395   -0.1876   -0.0875 C   0  0  0  0  0  0  0  0  0  0  0  0
   -2.3636   -0.5345   -1.5354 C   0  0  0  0  0  0  0  0  0  0  0  0
   -1.2021    0.0153    0.8033 C   0  0  1  0  0  0  0  0  0  0  0  0
   -0.4912   -1.3505    0.2277 C   0  0  0  0  0  0  0  0  0  0  0  0
    0.8408   -1.2250    0.9130 C   0  0  0  0  0  0  0  0  0  0  0  0
    1.5377   -0.2073    0.3930 C   0  0  0  0  0  0  0  0  0  0  0  0
    2.9588    0.0654    0.6959 C   0  0  0  0  0  0  0  0  0  0  0  0
    3.6487    0.3242   -0.4923 O   0  0  0  0  0  0  0  0  0  0  0  0
    0.8471    0.5886   -0.6060 C   0  0  0  0  0  0  0  0  0  0  0  0
   -0.5343    1.0179   -0.3083 C   0  0  0  0  0  0  0  0  0  0  0  0
  1  2  2  0
  2  3  1  0
  4  2  1  6
  4  5  1  0
  5  6  1  0
  6  7  2  0
  7  8  1  0
  8  9  1  0
  7 10  1  0
 10 11  1  0
 11  4  1  0
M  END
>  <zinc_id>  (75) 
ZINC000004521773

>  <smiles>  (75) 
C=C(C)[C@H]1CC=C(CO)CC1

$$$$

     RDKit          3D

 10 10  0  0  0  0  0  0  0  0999 V2000
   -3.1937    0.8312    0.2566 C   0  0  0  0  0  0  0  0  0  0  0  0
   -2.0704   -0.0249   -0.1461 C   0  0  0  0  0  0  0  0  0  0  0  0
   -2.1416   -1.0701   -0.7160 O   0  0  0  0  0  0  0  0  0  0  0  0
   -0.6134    0.5156    0.2750 C   0  0  1  0  0  0  0  0  0  0  0  0
   -0.1175   -0.9459    0.8345 C   0  0  0  0  0  0  0  0  0  0  0  0
    1.3533   -0.8342    0.9371 C   0  0  0  0  0  0  0  0  0  0  0  0
    2.0775   -0.0093    0.1713 C   0  0  0  0  0  0  0  0  0  0  0  0
    3.1947    0.8101    0.7481 C   0  0  0  0  0  0  0  0  0  0  0  0
    1.4923    0.4839   -1.0960 C   0  0  0  0  0  0  0  0  0  0  0  0
    0.0188    0.2437   -1.2143 C   0  0  0  0  0  0  0  0  0  0  0  0
  1  2  1  0
  2  3  2  0
  4  2  1  6
  4  5  1  0
  5  6  1  0
  6  7  2  0
  7  8  1  0
  7  9  1  0
  9 10  1  0
 10  4  1  0
M  END
>  <zinc_id>  (76) 
ZINC000005191778

>  <smiles>  (76) 
CC(=O)[C@H]1CC=C(C)CC1

$$$$

     RDKit          3D

 10 10  0  0  0  0  0  0  0  0999 V2000
   -2.5856   -0.1809   -0.8662 C   0  0  0  0  0  0  0  0  0  0  0  0
   -2.1151    0.2343   -0.0501 C   0  0  0  0  0  0  0  0  0  0  0  0
   -2.5451    0.1171    1.0560 O   0  0  0  0  0  0  0  0  0  0  0  0
   -0.6056    0.7291   -0.2786 C   0  0  2  0  0  0  0  0  0  0  0  0
   -0.1600   -0.7351   -0.8578 C   0  0  0  0  0  0  0  0  0  0  0  0
    1.2907   -0.5529   -1.1218 C   0  0  0  0  0  0  0  0  0  0  0  0
    1.9864    0.0312   -0.1375 C   0  0  0  0  0  0  0  0  0  0  0  0
    3.4634   -0.2379   -0.1587 C   0  0  0  0  0  0  0  0  0  0  0  0
    1.3579    0.0959    1.1870 C   0  0  0  0  0  0  0  0  0  0  0  0
   -0.0871    0.3723    1.2277 C   0  0  0  0  0  0  0  0  0  0  0  0
  1  2  1  0
  2  3  2  0
  4  2  1  1
  4  5  1  0
  5  6  1  0
  6  7  2  0
  7  8  1  0
  7  9  1  0
  9 10  1  0
 10  4  1  0
M  END
>  <zinc_id>  (77) 
ZINC000005191814

>  <smiles>  (77) 
CC(=O)[C@@H]1CC=C(C)CC1

$$$$

     RDKit          3D

 21 22  0  0  0  0  0  0  0  0999 V2000
    4.9593    0.4081    1.4376 C   0  0  0  0  0  0  0  0  0  0  0  0
    4.4106    1.1494    0.5656 C   0  0  0  0  0  0  0  0  0  0  0  0
    3.3826    0.7184   -0.3695 C   0  0  0  0  0  0  0  0  0  0  0  0
    3.1449    1.5155   -1.3941 C   0  0  0  0  0  0  0  0  0  0  0  0
    2.5843   -0.4696   -0.0229 C   0  0  0  0  0  0  0  0  0  0  0  0
    1.1755    0.0186    0.1588 C   0  0  0  0  0  0  0  0  0  0  0  0
    0.2765   -1.3020    0.5119 C   0  0  2  0  0  0  0  0  0  0  0  0
    0.0209   -1.6798   -1.0507 C   0  0  2  0  0  0  0  0  0  0  0  0
   -0.9648   -2.7779   -1.1293 C   0  0  0  0  0  0  0  0  0  0  0  0
    1.2690   -2.2745   -1.3310 O   0  0  0  0  0  0  0  0  0  0  0  0
   -0.1004   -0.5227   -1.8990 C   0  0  0  0  0  0  0  0  0  0  0  0
   -0.9892    0.5244   -1.3322 C   0  0  0  0  0  0  0  0  0  0  0  0
   -1.9837   -0.4291   -0.4499 C   0  0  2  0  0  0  0  0  0  0  0  0
   -2.9171    0.8023    0.0543 C   0  0  0  0  0  0  0  0  0  0  0  0
   -3.6178    0.3920    1.2953 C   0  0  0  0  0  0  0  0  0  0  0  0
   -3.9531    0.8083   -1.0680 C   0  0  0  0  0  0  0  0  0  0  0  0
   -2.2190    2.0768    0.0529 C   0  0  0  0  0  0  0  0  0  0  0  0
   -0.9358    2.1048    0.8294 C   0  0  0  0  0  0  0  0  0  0  0  0
   -0.7839    0.7922    1.4717 C   0  0  0  0  0  0  0  0  0  0  0  0
   -1.0507   -0.4347    0.8548 C   0  0  2  0  0  0  0  0  0  0  0  0
   -1.7082   -1.4206    1.8224 C   0  0  0  0  0  0  0  0  0  0  0  0
  1  2  2  0
  2  3  1  0
  3  4  2  0
  3  5  1  0
  5  6  1  0
  7  6  1  6
  7  8  1  0
  8  9  1  1
  8 10  1  0
  8 11  1  0
 11 12  1  0
 13 12  1  6
 13 14  1  0
 14 15  1  0
 14 16  1  0
 14 17  1  0
 17 18  1  0
 18 19  1  0
 19 20  1  0
 20 21  1  1
 20  7  1  0
 20 13  1  0
M  END
>  <zinc_id>  (78) 
ZINC000005644989

>  <smiles>  (78) 
C=CC(=C)CC[C@H]1[C@@]2(C)CCCC(C)(C)[C@H]2CC[C@@]1(C)O

$$$$

     RDKit          3D

 23 25  0  0  0  0  0  0  0  0999 V2000
    5.3351    2.0565    0.2646 C   0  0  0  0  0  0  0  0  0  0  0  0
    4.9575    1.3769    0.4543 O   0  0  0  0  0  0  0  0  0  0  0  0
    3.9325    0.5755   -0.0537 C   0  0  0  0  0  0  0  0  0  0  0  0
    3.2383    0.9950   -1.1819 C   0  0  0  0  0  0  0  0  0  0  0  0
    2.0422    0.3575   -1.4983 C   0  0  0  0  0  0  0  0  0  0  0  0
    1.5634   -0.5379   -0.5940 C   0  0  0  0  0  0  0  0  0  0  0  0
    0.0940   -1.1277   -0.8413 C   0  0  2  0  0  0  0  0  0  0  0  0
   -0.5291    0.2683   -0.9247 O   0  0  0  0  0  0  0  0  0  0  0  0
   -1.8941    0.3588   -0.8412 C   0  0  0  0  0  0  0  0  0  0  0  0
   -2.5108    1.5459   -1.2259 C   0  0  0  0  0  0  0  0  0  0  0  0
   -3.6320    2.0401   -0.5723 C   0  0  0  0  0  0  0  0  0  0  0  0
   -4.1048    3.2856   -0.9239 O   0  0  0  0  0  0  0  0  0  0  0  0
   -4.3272    1.1587    0.2478 C   0  0  0  0  0  0  0  0  0  0  0  0
   -3.7879   -0.0899    0.5401 C   0  0  0  0  0  0  0  0  0  0  0  0
   -4.5140   -1.0853    1.1855 O   0  0  0  0  0  0  0  0  0  0  0  0
   -2.4785   -0.3238    0.2170 C   0  0  0  0  0  0  0  0  0  0  0  0
   -1.7488   -1.5367    0.6099 C   0  0  0  0  0  0  0  0  0  0  0  0
   -2.2644   -2.1936    1.5625 O   0  0  0  0  0  0  0  0  0  0  0  0
   -0.1931   -1.1992    0.8571 C   0  0  1  0  0  0  0  0  0  0  0  0
    0.1906   -2.6609    0.8813 O   0  0  0  0  0  0  0  0  0  0  0  0
    2.4474   -1.2983    0.1099 C   0  0  0  0  0  0  0  0  0  0  0  0
    3.6864   -0.7044    0.3452 C   0  0  0  0  0  0  0  0  0  0  0  0
    4.4972   -1.2613    1.3371 O   0  0  0  0  0  0  0  0  0  0  0  0
  1  2  1  0
  2  3  1  0
  3  4  2  0
  4  5  1  0
  5  6  2  0
  7  6  1  1
  7  8  1  0
  8  9  1  0
  9 10  2  0
 10 11  1  0
 11 12  1  0
 11 13  2  0
 13 14  1  0
 14 15  1  0
 14 16  2  0
 16 17  1  0
 17 18  2  0
 17 19  1  0
 19 20  1  6
  6 21  1  0
 21 22  2  0
 22 23  1  0
 22  3  1  0
 19  7  1  0
 16  9  1  0
M  END
>  <zinc_id>  (79) 
ZINC000006484601

>  <smiles>  (79) 
COc1ccc([C@@H]2Oc3cc(O)cc(O)c3C(=O)[C@H]2O)cc1O

$$$$

     RDKit          3D

 29 32  0  0  0  0  0  0  0  0999 V2000
    7.4804   -1.3029    0.2075 C   0  0  0  0  0  0  0  0  0  0  0  0
    7.0468    0.0215    0.5124 C   0  0  0  0  0  0  0  0  0  0  0  0
    7.3690    1.0179   -0.5555 C   0  0  0  0  0  0  0  0  0  0  0  0
    5.3987   -0.0257    0.6305 C   0  0  1  0  0  0  0  0  0  0  0  0
    5.2586    1.6252    0.5710 C   0  0  0  0  0  0  0  0  0  0  0  0
    5.2050   -0.1624   -1.0083 C   0  0  0  0  0  0  0  0  0  0  0  0
    3.9838   -1.0667   -1.1671 C   0  0  0  0  0  0  0  0  0  0  0  0
    2.7986    0.0418   -0.9585 C   0  0  1  0  0  0  0  0  0  0  0  0
    2.1373   -0.2817   -2.4177 C   0  0  0  0  0  0  0  0  0  0  0  0
    1.7898   -1.1096   -0.1650 C   0  0  1  0  0  0  0  0  0  0  0  0
    2.0921   -0.4160    1.2884 C   0  0  0  0  0  0  0  0  0  0  0  0
    0.8061    0.0974    1.7634 C   0  0  0  0  0  0  0  0  0  0  0  0
   -0.2638   -0.8140    0.9200 C   0  0  1  0  0  0  0  0  0  0  0  0
   -1.4494    0.4133    0.8850 C   0  0  2  0  0  0  0  0  0  0  0  0
   -2.1994   -0.1465    2.1941 C   0  0  0  0  0  0  0  0  0  0  0  0
   -3.6322    0.0640    2.0686 C   0  0  0  0  0  0  0  0  0  0  0  0
   -4.3557    0.2394    0.9660 C   0  0  0  0  0  0  0  0  0  0  0  0
   -5.8356   -0.0108    0.9450 C   0  0  0  0  0  0  0  0  0  0  0  0
   -6.0628   -0.8143   -0.5149 C   0  0  1  0  0  0  0  0  0  0  0  0
   -7.5843   -0.5382   -0.4738 O   0  0  0  0  0  0  0  0  0  0  0  0
   -5.7996    0.6082   -1.3775 C   0  0  0  0  0  0  0  0  0  0  0  0
   -4.2988    0.4219   -1.5286 C   0  0  0  0  0  0  0  0  0  0  0  0
   -3.5855    0.6271   -0.2497 C   0  0  1  0  0  0  0  0  0  0  0  0
   -2.9994    1.9645   -0.1543 C   0  0  0  0  0  0  0  0  0  0  0  0
   -2.4275   -0.5280   -0.1495 C   0  0  1  0  0  0  0  0  0  0  0  0
   -1.6423   -0.0035   -1.4929 C   0  0  0  0  0  0  0  0  0  0  0  0
   -0.3599   -0.8347   -1.4996 C   0  0  0  0  0  0  0  0  0  0  0  0
    0.4405   -0.2471   -0.4466 C   0  0  2  0  0  0  0  0  0  0  0  0
    0.6896    1.1598   -0.3354 C   0  0  0  0  0  0  0  0  0  0  0  0
  1  2  1  0
  2  3  1  0
  4  2  1  6
  4  5  1  0
  4  6  1  0
  6  7  1  0
  8  7  1  6
  8  9  1  0
  8 10  1  0
 10 11  1  1
 11 12  1  0
 13 12  1  1
 13 14  1  0
 14 15  1  1
 15 16  1  0
 16 17  2  0
 17 18  1  0
 18 19  1  0
 19 20  1  1
 19 21  1  0
 21 22  1  0
 22 23  1  0
 23 24  1  1
 23 25  1  0
 25 26  1  6
 26 27  1  0
 27 28  1  0
 28 29  1  1
 28 10  1  0
 28 13  1  0
 25 14  1  0
 23 17  1  0
M  END
>  <zinc_id>  (80) 
ZINC000006569100

>  <smiles>  (80) 
CC(C)[C@@H](C)CC[C@@H](C)[C@H]1CC[C@H]2[C@@H]3CC=C4C[C@@H](O)CC[C@]4(C)[C@H]3CC[C@@]21C

$$$$

     RDKit          3D

 34 36  0  0  0  0  0  0  0  0999 V2000
    4.2777   -0.2829    0.2358 O   0  0  0  0  0  0  0  0  0  0  0  0
    4.0039   -0.5047    0.0800 C   0  0  0  0  0  0  0  0  0  0  0  0
    3.1983    0.8906   -0.4691 C   0  0  1  0  0  0  0  0  0  0  0  0
    4.2234    1.7154    0.1700 O   0  0  0  0  0  0  0  0  0  0  0  0
    4.1148    0.3683    0.4555 C   0  0  1  0  0  0  0  0  0  0  0  0
    4.6833    0.0088    1.7322 C   0  0  0  0  0  0  0  0  0  0  0  0
    3.7918    0.3932    2.6904 O   0  0  0  0  0  0  0  0  0  0  0  0
    2.9002   -0.1125   -0.0450 O   0  0  0  0  0  0  0  0  0  0  0  0
    1.7282   -0.2567    0.8020 C   0  0  1  0  0  0  0  0  0  0  0  0
    0.7260    0.3650   -0.1899 O   0  0  0  0  0  0  0  0  0  0  0  0
   -0.5571   -0.2654    0.2755 C   0  0  2  0  0  0  0  0  0  0  0  0
   -1.1449    1.1732    0.8004 C   0  0  0  0  0  0  0  0  0  0  0  0
   -2.4891    1.0546    0.6844 O   0  0  0  0  0  0  0  0  0  0  0  0
   -2.7700   -0.1322   -0.2527 C   0  0  1  0  0  0  0  0  0  0  0  0
   -4.2183   -0.2698    0.1681 O   0  0  0  0  0  0  0  0  0  0  0  0
   -4.6844    1.1221    0.2726 C   0  0  2  0  0  0  0  0  0  0  0  0
   -5.9994    0.7633    1.1946 C   0  0  0  0  0  0  0  0  0  0  0  0
   -5.8284   -0.4303    1.8046 O   0  0  0  0  0  0  0  0  0  0  0  0
   -5.5522    1.1071   -1.2111 C   0  0  2  0  0  0  0  0  0  0  0  0
   -6.4040   -0.1152   -0.9271 O   0  0  0  0  0  0  0  0  0  0  0  0
   -4.4809    0.2693   -2.2613 C   0  0  2  0  0  0  0  0  0  0  0  0
   -4.4716   -1.0999   -1.6421 O   0  0  0  0  0  0  0  0  0  0  0  0
   -2.9500    0.8155   -1.7027 C   0  0  1  0  0  0  0  0  0  0  0  0
   -3.3797    2.1319   -1.1271 O   0  0  0  0  0  0  0  0  0  0  0  0
    0.1133   -0.6646    1.8056 C   0  0  1  0  0  0  0  0  0  0  0  0
   -1.2275   -1.0275    2.3473 O   0  0  0  0  0  0  0  0  0  0  0  0
    0.3297   -2.2627    1.2216 C   0  0  2  0  0  0  0  0  0  0  0  0
    1.3504   -2.5552    2.2870 O   0  0  0  0  0  0  0  0  0  0  0  0
    1.6316   -1.8952    0.1815 C   0  0  1  0  0  0  0  0  0  0  0  0
    0.8353   -1.6590   -1.0618 O   0  0  0  0  0  0  0  0  0  0  0  0
    5.1717    0.0848   -0.7940 C   0  0  1  0  0  0  0  0  0  0  0  0
    4.8118   -1.3678   -1.0877 O   0  0  0  0  0  0  0  0  0  0  0  0
    3.9712    0.5823   -1.9205 C   0  0  2  0  0  0  0  0  0  0  0  0
    4.2949    2.0561   -1.9589 O   0  0  0  0  0  0  0  0  0  0  0  0
  1  2  1  0
  3  2  1  1
  3  4  1  0
  4  5  1  0
  5  6  1  1
  6  7  1  0
  5  8  1  0
  9  8  1  6
  9 10  1  0
 10 11  1  0
 11 12  1  1
 12 13  1  0
 14 13  1  1
 14 15  1  0
 15 16  1  0
 16 17  1  1
 17 18  1  0
 16 19  1  0
 19 20  1  1
 19 21  1  0
 21 22  1  1
 21 23  1  0
 23 24  1  1
 11 25  1  0
 25 26  1  1
 25 27  1  0
 27 28  1  1
 27 29  1  0
 29 30  1  6
  5 31  1  0
 31 32  1  6
 31 33  1  0
 33 34  1  1
 33  3  1  0
 29  9  1  0
 23 14  1  0
M  END
>  <zinc_id>  (81) 
ZINC000006920405

>  <smiles>  (81) 
OC[C@H]1O[C@@](CO)(O[C@H]2O[C@H](CO[C@H]3O[C@H](CO)[C@H](O)[C@H](O)[C@H]3O)[C@@H](O)[C@H](O)[C@H]2O)[C@@H](O)[C@@H]1O

$$$$

     RDKit          3D

 41 45  0  0  0  0  0  0  0  0999 V2000
    6.8344    2.4614   -0.3542 C   0  0  0  0  0  0  0  0  0  0  0  0
    6.7427    1.6124    1.0349 C   0  0  2  0  0  0  0  0  0  0  0  0
    5.5261    0.7638    0.7557 O   0  0  0  0  0  0  0  0  0  0  0  0
    4.8409    1.5763   -0.3190 C   0  0  1  0  0  0  0  0  0  0  0  0
    3.8823    0.4811   -0.7102 O   0  0  0  0  0  0  0  0  0  0  0  0
    3.2511   -0.0076    0.5431 C   0  0  2  0  0  0  0  0  0  0  0  0
    4.2287   -1.3957    0.5169 C   0  0  1  0  0  0  0  0  0  0  0  0
    3.4582   -2.0920    1.6095 O   0  0  0  0  0  0  0  0  0  0  0  0
    3.7698   -2.2714   -0.8628 C   0  0  2  0  0  0  0  0  0  0  0  0
    3.2472   -1.1976   -1.7669 O   0  0  0  0  0  0  0  0  0  0  0  0
    2.2060   -2.8599   -0.5012 C   0  0  1  0  0  0  0  0  0  0  0  0
    2.8652   -4.0018    0.4804 C   0  0  0  0  0  0  0  0  0  0  0  0
    1.8751   -4.5013    1.2586 O   0  0  0  0  0  0  0  0  0  0  0  0
    1.8202   -1.8819    0.5628 O   0  0  0  0  0  0  0  0  0  0  0  0
    1.8368   -0.5862   -0.2178 C   0  0  1  0  0  0  0  0  0  0  0  0
    0.9127    0.0953    0.8334 O   0  0  0  0  0  0  0  0  0  0  0  0
   -0.3913   -0.4319    0.7731 C   0  0  0  0  0  0  0  0  0  0  0  0
   -0.6384   -1.7602    0.4124 C   0  0  0  0  0  0  0  0  0  0  0  0
   -1.5828   -2.1348   -0.5359 C   0  0  0  0  0  0  0  0  0  0  0  0
   -1.2280   -2.8777   -1.6766 O   0  0  0  0  0  0  0  0  0  0  0  0
   -2.5319   -1.1509   -0.7937 C   0  0  0  0  0  0  0  0  0  0  0  0
   -2.6518   -0.0035   -0.0331 C   0  0  0  0  0  0  0  0  0  0  0  0
   -1.5370    0.3354    0.7409 C   0  0  0  0  0  0  0  0  0  0  0  0
   -3.9252    0.4155    0.2732 O   0  0  0  0  0  0  0  0  0  0  0  0
   -4.9358    0.4825   -0.8887 C   0  0  2  0  0  0  0  0  0  0  0  0
   -6.1741    0.4453    0.1582 C   0  0  0  0  0  0  0  0  0  0  0  0
   -7.3776    0.0917   -0.4183 C   0  0  0  0  0  0  0  0  0  0  0  0
   -8.5769    0.5845    0.0784 C   0  0  0  0  0  0  0  0  0  0  0  0
   -8.5223    1.8008    0.7024 C   0  0  0  0  0  0  0  0  0  0  0  0
   -9.5668    2.6767    0.8670 O   0  0  0  0  0  0  0  0  0  0  0  0
   -7.3939    2.0306    1.4639 C   0  0  0  0  0  0  0  0  0  0  0  0
   -6.1962    1.5219    1.0056 C   0  0  0  0  0  0  0  0  0  0  0  0
   -5.0141   -1.1544   -1.0718 C   0  0  0  0  0  0  0  0  0  0  0  0
   -3.6727   -1.5012   -1.6392 C   0  0  0  0  0  0  0  0  0  0  0  0
   -3.5011   -2.5027   -2.3877 O   0  0  0  0  0  0  0  0  0  0  0  0
    3.8096    2.1255    0.9355 C   0  0  2  0  0  0  0  0  0  0  0  0
    3.0159    2.8988   -0.0740 O   0  0  0  0  0  0  0  0  0  0  0  0
    4.7150    3.4999    1.3498 C   0  0  2  0  0  0  0  0  0  0  0  0
    5.2521    3.8307   -0.0095 O   0  0  0  0  0  0  0  0  0  0  0  0
    6.0780    2.7945    2.0704 C   0  0  1  0  0  0  0  0  0  0  0  0
    5.2502    1.7883    2.8425 O   0  0  0  0  0  0  0  0  0  0  0  0
  2  1  1  6
  2  3  1  0
  3  4  1  0
  4  5  1  6
  6  5  1  6
  6  7  1  0
  7  8  1  1
  7  9  1  0
  9 10  1  6
  9 11  1  0
 11 12  1  1
 12 13  1  0
 11 14  1  0
 14 15  1  0
 15 16  1  1
 16 17  1  0
 17 18  2  0
 18 19  1  0
 19 20  1  0
 19 21  2  0
 21 22  1  0
 22 23  2  0
 22 24  1  0
 24 25  1  0
 25 26  1  1
 26 27  2  0
 27 28  1  0
 28 29  2  0
 29 30  1  0
 29 31  1  0
 31 32  2  0
 25 33  1  0
 33 34  1  0
 34 35  2  0
  4 36  1  0
 36 37  1  6
 36 38  1  0
 38 39  1  6
 38 40  1  0
 40 41  1  1
 40  2  1  0
 15  6  1  0
 23 17  1  0
 32 26  1  0
 34 21  1  0
M  END
>  <zinc_id>  (82) 
ZINC000008143604

>  <smiles>  (82) 
C[C@@H]1O[C@@H](O[C@H]2[C@H](Oc3cc(O)c4c(c3)O[C@H](c3ccc(O)cc3)CC4=O)O[C@H](CO)[C@@H](O)[C@@H]2O)[C@H](O)[C@H](O)[C@H]1O

$$$$

     RDKit          3D

 30 35  0  0  0  0  0  0  0  0999 V2000
    3.4447   -2.1813    0.9912 C   0  0  0  0  0  0  0  0  0  0  0  0
    2.7390   -1.3658   -0.2174 C   0  0  1  0  0  0  0  0  0  0  0  0
    1.9411   -0.3293    0.8395 C   0  0  1  0  0  0  0  0  0  0  0  0
    1.9442    0.9648   -0.2583 C   0  0  2  0  0  0  0  0  0  0  0  0
    0.8796    0.2542   -1.2967 C   0  0  0  0  0  0  0  0  0  0  0  0
   -0.1439    0.5371   -0.0690 C   0  0  1  0  0  0  0  0  0  0  0  0
   -1.4630   -0.2437   -0.7623 C   0  0  2  0  0  0  0  0  0  0  0  0
   -1.9720    1.1301   -1.4142 C   0  0  0  0  0  0  0  0  0  0  0  0
   -3.4194    1.2016   -1.3951 C   0  0  0  0  0  0  0  0  0  0  0  0
   -4.1613    0.1875   -1.0219 C   0  0  0  0  0  0  0  0  0  0  0  0
   -5.6172    0.2419   -1.0735 C   0  0  0  0  0  0  0  0  0  0  0  0
   -6.1308    1.3029    0.0750 C   0  0  1  0  0  0  0  0  0  0  0  0
   -7.1179    0.2968    0.6381 O   0  0  0  0  0  0  0  0  0  0  0  0
   -4.9895    0.8934    1.1875 C   0  0  0  0  0  0  0  0  0  0  0  0
   -4.7534   -0.5707    1.1023 C   0  0  0  0  0  0  0  0  0  0  0  0
   -3.6489   -0.7169    0.0665 C   0  0  1  0  0  0  0  0  0  0  0  0
   -3.3705   -2.0667   -0.3891 C   0  0  0  0  0  0  0  0  0  0  0  0
   -2.3311   -0.0006    0.6635 C   0  0  1  0  0  0  0  0  0  0  0  0
   -1.7303   -1.3449    1.3439 C   0  0  0  0  0  0  0  0  0  0  0  0
   -0.3132   -1.0058    1.8029 C   0  0  0  0  0  0  0  0  0  0  0  0
    0.4541   -0.8215    0.5568 C   0  0  2  0  0  0  0  0  0  0  0  0
    0.3951   -1.9105   -0.4158 C   0  0  0  0  0  0  0  0  0  0  0  0
    3.1180    0.5051   -1.0554 O   0  0  0  0  0  0  0  0  0  0  0  0
    3.8834   -0.2428   -0.2894 C   0  0  1  0  0  0  0  0  0  0  0  0
    4.3435    0.1472    1.0342 C   0  0  0  0  0  0  0  0  0  0  0  0
    5.6586    0.8937    0.7922 C   0  0  0  0  0  0  0  0  0  0  0  0
    5.1795    1.7713   -0.4980 C   0  0  1  0  0  0  0  0  0  0  0  0
    6.6164    2.5210   -0.6504 C   0  0  0  0  0  0  0  0  0  0  0  0
    5.5794    0.5976   -1.5554 C   0  0  0  0  0  0  0  0  0  0  0  0
    4.9859   -0.6459   -1.0618 N   0  0  0  0  0  0  0  0  0  0  0  0
  2  1  1  1
  2  3  1  0
  3  4  1  6
  4  5  1  6
  6  5  1  6
  6  7  1  0
  7  8  1  6
  8  9  1  0
  9 10  2  0
 10 11  1  0
 11 12  1  0
 12 13  1  1
 12 14  1  0
 14 15  1  0
 15 16  1  0
 16 17  1  6
 16 18  1  0
 18 19  1  1
 19 20  1  0
 20 21  1  0
 21 22  1  6
  4 23  1  0
 24 23  1  6
 24 25  1  0
 25 26  1  0
 26 27  1  0
 27 28  1  6
 27 29  1  0
 29 30  1  0
 24  2  1  0
 21  3  1  0
 30 24  1  0
 21  6  1  0
 18  7  1  0
 16 10  1  0
M  END
>  <zinc_id>  (83) 
ZINC000008143844

>  <smiles>  (83) 
C[C@H]1[C@H]2[C@H](C[C@H]3[C@@H]4CC=C5C[C@@H](O)CC[C@]5(C)[C@H]4CC[C@@]32C)O[C@@]12CC[C@@H](C)CN2

$$$$

     RDKit          3D

 42 43  0  0  0  0  0  0  0  0999 V2000
   -2.3466    0.8673   -1.2174 C   0  0  0  0  0  0  0  0  0  0  0  0
   -2.2301   -0.1387   -0.3472 C   0  0  0  0  0  0  0  0  0  0  0  0
   -2.8298    0.1441    0.8468 C   0  0  0  0  0  0  0  0  0  0  0  0
   -3.2463   -0.3915    1.8999 C   0  0  0  0  0  0  0  0  0  0  0  0
   -4.6069   -0.3639    2.4475 C   0  0  0  0  0  0  0  0  0  0  0  0
   -5.5799   -1.0576    1.8544 C   0  0  0  0  0  0  0  0  0  0  0  0
   -5.1355   -1.9517    0.7390 C   0  0  0  0  0  0  0  0  0  0  0  0
   -6.9985   -0.7396    2.0664 C   0  0  0  0  0  0  0  0  0  0  0  0
   -7.8428   -1.3512    1.2603 C   0  0  0  0  0  0  0  0  0  0  0  0
   -9.1319   -0.8929    0.8584 C   0  0  0  0  0  0  0  0  0  0  0  0
  -10.2697   -1.1478    1.5105 C   0  0  0  0  0  0  0  0  0  0  0  0
  -10.2305   -2.0441    2.6792 C   0  0  0  0  0  0  0  0  0  0  0  0
  -11.4493   -0.8077    0.7037 C   0  0  0  0  0  0  0  0  0  0  0  0
  -11.5000    0.8513    0.6324 C   0  0  1  0  0  0  0  0  0  0  0  0
  -10.9383    1.0485    2.0382 O   0  0  0  0  0  0  0  0  0  0  0  0
  -10.0164    1.0879   -0.0576 C   0  0  0  0  0  0  0  0  0  0  0  0
   -9.4484   -0.2062   -0.4351 C   0  0  0  0  0  0  0  0  0  0  0  0
   -8.3030   -0.0085   -1.3285 C   0  0  0  0  0  0  0  0  0  0  0  0
  -10.5000   -0.9949   -1.1957 C   0  0  0  0  0  0  0  0  0  0  0  0
   -1.7918   -1.2378   -0.9070 C   0  0  0  0  0  0  0  0  0  0  0  0
   -0.6738   -1.2356   -1.8188 C   0  0  0  0  0  0  0  0  0  0  0  0
    0.2165   -0.2975   -1.9671 C   0  0  0  0  0  0  0  0  0  0  0  0
    1.6565   -0.4526   -1.7310 C   0  0  0  0  0  0  0  0  0  0  0  0
    2.0935   -0.0119   -0.5513 C   0  0  0  0  0  0  0  0  0  0  0  0
    1.4331    1.2089    0.0069 C   0  0  0  0  0  0  0  0  0  0  0  0
    3.2771   -0.5493    0.1100 C   0  0  0  0  0  0  0  0  0  0  0  0
    4.0693    0.2729    0.7691 C   0  0  0  0  0  0  0  0  0  0  0  0
    5.5274    0.2965    0.6033 C   0  0  0  0  0  0  0  0  0  0  0  0
    6.0234    1.2597   -0.1742 C   0  0  0  0  0  0  0  0  0  0  0  0
    5.3041    1.5084   -1.4539 C   0  0  0  0  0  0  0  0  0  0  0  0
    7.4322    1.6151    0.0181 C   0  0  0  0  0  0  0  0  0  0  0  0
    8.3556    1.5379   -0.8981 C   0  0  0  0  0  0  0  0  0  0  0  0
    9.4385    0.5448   -0.9282 C   0  0  0  0  0  0  0  0  0  0  0  0
    9.5601   -0.1470   -2.0649 C   0  0  0  0  0  0  0  0  0  0  0  0
    8.9557    0.4281   -3.3066 C   0  0  0  0  0  0  0  0  0  0  0  0
    9.8900   -1.6086   -2.0667 C   0  0  0  0  0  0  0  0  0  0  0  0
    9.7191   -2.0511   -0.4866 C   0  0  1  0  0  0  0  0  0  0  0  0
   10.6464   -3.2399   -0.6555 O   0  0  0  0  0  0  0  0  0  0  0  0
   10.9563   -1.0719   -0.0051 C   0  0  0  0  0  0  0  0  0  0  0  0
   10.1561    0.1782    0.3143 C   0  0  0  0  0  0  0  0  0  0  0  0
    9.2494   -0.1992    1.4509 C   0  0  0  0  0  0  0  0  0  0  0  0
   11.1092    1.2353    0.7872 C   0  0  0  0  0  0  0  0  0  0  0  0
  1  2  1  0
  2  3  1  0
  3  4  2  0
  4  5  1  0
  5  6  2  0
  6  7  1  0
  6  8  1  0
  8  9  2  0
  9 10  1  0
 10 11  2  0
 11 12  1  0
 11 13  1  0
 13 14  1  0
 14 15  1  1
 14 16  1  0
 16 17  1  0
 17 18  1  0
 17 19  1  0
  2 20  2  0
 20 21  1  0
 21 22  2  0
 22 23  1  0
 23 24  2  0
 24 25  1  0
 24 26  1  0
 26 27  2  0
 27 28  1  0
 28 29  2  0
 29 30  1  0
 29 31  1  0
 31 32  2  0
 32 33  1  0
 33 34  2  0
 34 35  1  0
 34 36  1  0
 36 37  1  0
 37 38  1  6
 37 39  1  0
 39 40  1  0
 40 41  1  0
 40 42  1  0
 17 10  1  0
 40 33  1  0
M  END
>  <zinc_id>  (84) 
ZINC000008220175

>  <smiles>  (84) 
CC1=C(/C=C/C(C)=C/C=C/C(C)=C/C=C/C=C(C)/C=C/C=C(C)/C=C/C2=C(C)C[C@@H](O)CC2(C)C)C(C)(C)C[C@H](O)C1

$$$$

     RDKit          3D

 24 23  0  0  0  0  0  0  0  0999 V2000
    7.3192    5.2484    0.1095 C   0  0  0  0  0  0  0  0  0  0  0  0
    7.6554    3.7812    0.0389 C   0  0  0  0  0  0  0  0  0  0  0  0
    6.3818    2.9616   -0.0876 C   0  0  0  0  0  0  0  0  0  0  0  0
    6.7922    1.5248   -0.3734 C   0  0  0  0  0  0  0  0  0  0  0  0
    5.6265    0.6121   -0.1128 C   0  0  0  0  0  0  0  0  0  0  0  0
    5.6654   -0.6521   -0.9270 C   0  0  0  0  0  0  0  0  0  0  0  0
    4.9451   -1.7304   -0.1329 C   0  0  0  0  0  0  0  0  0  0  0  0
    3.4488   -1.5078   -0.1107 C   0  0  0  0  0  0  0  0  0  0  0  0
    3.1404   -0.2549    0.6110 C   0  0  0  0  0  0  0  0  0  0  0  0
    2.0123   -0.0296    1.2712 C   0  0  0  0  0  0  0  0  0  0  0  0
    0.8420   -0.8906    0.9059 C   0  0  0  0  0  0  0  0  0  0  0  0
    0.5668   -0.7889   -0.5818 C   0  0  0  0  0  0  0  0  0  0  0  0
   -0.8934   -0.4269   -0.7875 C   0  0  0  0  0  0  0  0  0  0  0  0
   -1.7045   -1.3752    0.0675 C   0  0  0  0  0  0  0  0  0  0  0  0
   -1.3084   -2.7981   -0.2370 C   0  0  0  0  0  0  0  0  0  0  0  0
   -2.4571   -3.6351   -0.7273 C   0  0  0  0  0  0  0  0  0  0  0  0
   -3.5422   -2.8082   -1.3905 C   0  0  0  0  0  0  0  0  0  0  0  0
   -4.3050   -2.1154   -0.2934 C   0  0  0  0  0  0  0  0  0  0  0  0
   -5.6882   -1.6930   -0.7053 C   0  0  0  0  0  0  0  0  0  0  0  0
   -5.9398   -0.3270   -0.1000 C   0  0  0  0  0  0  0  0  0  0  0  0
   -7.2562    0.2642   -0.5253 C   0  0  0  0  0  0  0  0  0  0  0  0
   -7.1067    1.7511   -0.4571 C   0  0  0  0  0  0  0  0  0  0  0  0
   -5.9858    2.3183   -0.4467 O   0  0  0  0  0  0  0  0  0  0  0  0
   -8.2087    2.5714   -0.2048 O   0  0  0  0  0  0  0  0  0  0  0  0
  1  2  1  0
  2  3  1  0
  3  4  1  0
  4  5  1  0
  5  6  1  0
  6  7  1  0
  7  8  1  0
  8  9  1  0
  9 10  2  0
 10 11  1  0
 11 12  1  0
 12 13  1  0
 13 14  1  0
 14 15  1  0
 15 16  1  0
 16 17  1  0
 17 18  1  0
 18 19  1  0
 19 20  1  0
 20 21  1  0
 21 22  1  0
 22 23  2  0
 22 24  1  0
M  END
>  <zinc_id>  (85) 
ZINC000008220981

>  <smiles>  (85) 
CCCCCCCC/C=C\CCCCCCCCCCCC(=O)O

$$$$

     RDKit          3D

 42 43  0  0  0  0  0  0  0  0999 V2000
    1.5859    2.0095    1.5539 C   0  0  0  0  0  0  0  0  0  0  0  0
    1.8849    2.6455    0.2330 C   0  0  0  0  0  0  0  0  0  0  0  0
    3.2827    3.0527    0.0422 C   0  0  0  0  0  0  0  0  0  0  0  0
    4.0637    2.5584   -0.8964 C   0  0  0  0  0  0  0  0  0  0  0  0
    5.3876    1.9879   -0.6098 C   0  0  0  0  0  0  0  0  0  0  0  0
    5.5099    0.7188   -0.2737 C   0  0  0  0  0  0  0  0  0  0  0  0
    4.2875   -0.1319   -0.4151 C   0  0  0  0  0  0  0  0  0  0  0  0
    6.5475    0.2089    0.6182 C   0  0  0  0  0  0  0  0  0  0  0  0
    7.7878    0.6217    0.6271 C   0  0  0  0  0  0  0  0  0  0  0  0
    8.9577   -0.2320    0.4058 C   0  0  0  0  0  0  0  0  0  0  0  0
    9.9366    0.1539   -0.4140 C   0  0  0  0  0  0  0  0  0  0  0  0
   10.0036    1.6107   -0.7205 C   0  0  0  0  0  0  0  0  0  0  0  0
   10.4813   -0.7690   -1.4617 C   0  0  0  0  0  0  0  0  0  0  0  0
    9.1182   -1.7451   -1.6008 C   0  0  1  0  0  0  0  0  0  0  0  0
    9.8949   -2.7717   -2.4582 O   0  0  0  0  0  0  0  0  0  0  0  0
    9.5215   -2.5691   -0.1924 C   0  0  0  0  0  0  0  0  0  0  0  0
    9.0352   -1.6329    0.8945 C   0  0  0  0  0  0  0  0  0  0  0  0
    7.6991   -2.1400    1.3929 C   0  0  0  0  0  0  0  0  0  0  0  0
   10.0415   -1.7308    2.0302 C   0  0  0  0  0  0  0  0  0  0  0  0
    1.1223    2.2423   -0.7841 C   0  0  0  0  0  0  0  0  0  0  0  0
    0.1066    1.2013   -0.6350 C   0  0  0  0  0  0  0  0  0  0  0  0
    0.2775    0.1659    0.1841 C   0  0  0  0  0  0  0  0  0  0  0  0
   -0.8689   -0.6499    0.5550 C   0  0  0  0  0  0  0  0  0  0  0  0
   -2.0369   -0.1152    0.9186 C   0  0  0  0  0  0  0  0  0  0  0  0
   -2.1773    1.3397    0.5892 C   0  0  0  0  0  0  0  0  0  0  0  0
   -3.2049   -0.9372    0.6816 C   0  0  0  0  0  0  0  0  0  0  0  0
   -3.8514   -1.6302    1.5844 C   0  0  0  0  0  0  0  0  0  0  0  0
   -5.3166   -1.7039    1.6677 C   0  0  0  0  0  0  0  0  0  0  0  0
   -5.9316   -1.9577    0.5133 C   0  0  0  0  0  0  0  0  0  0  0  0
   -5.5167   -3.2710   -0.0728 C   0  0  0  0  0  0  0  0  0  0  0  0
   -7.2145   -1.3518    0.1376 C   0  0  0  0  0  0  0  0  0  0  0  0
   -7.2689   -0.8278   -1.0360 C   0  0  0  0  0  0  0  0  0  0  0  0
   -8.6169   -0.0210   -1.4908 C   0  0  1  0  0  0  0  0  0  0  0  0
   -9.5887   -0.8599   -0.4595 C   0  0  0  0  0  0  0  0  0  0  0  0
   -9.5444   -2.2825   -0.9496 C   0  0  0  0  0  0  0  0  0  0  0  0
  -10.7857   -0.3773   -0.3355 C   0  0  0  0  0  0  0  0  0  0  0  0
  -10.8581    1.1444    0.3246 C   0  0  2  0  0  0  0  0  0  0  0  0
  -10.7130    1.7933   -1.0810 O   0  0  0  0  0  0  0  0  0  0  0  0
   -9.2145    1.1987    0.6730 C   0  0  0  0  0  0  0  0  0  0  0  0
   -8.4104    1.2645   -0.4596 C   0  0  0  0  0  0  0  0  0  0  0  0
   -6.9958    1.2997   -0.0176 C   0  0  0  0  0  0  0  0  0  0  0  0
   -8.4183    2.4899   -1.3704 C   0  0  0  0  0  0  0  0  0  0  0  0
  1  2  1  0
  2  3  1  0
  3  4  2  0
  4  5  1  0
  5  6  2  0
  6  7  1  0
  6  8  1  0
  8  9  2  0
  9 10  1  0
 10 11  2  0
 11 12  1  0
 11 13  1  0
 13 14  1  0
 14 15  1  6
 14 16  1  0
 16 17  1  0
 17 18  1  0
 17 19  1  0
  2 20  2  0
 20 21  1  0
 21 22  2  0
 22 23  1  0
 23 24  2  0
 24 25  1  0
 24 26  1  0
 26 27  2  0
 27 28  1  0
 28 29  2  0
 29 30  1  0
 29 31  1  0
 31 32  2  0
 33 32  1  1
 33 34  1  0
 34 35  1  0
 34 36  2  0
 36 37  1  0
 37 38  1  6
 37 39  1  0
 39 40  1  0
 40 41  1  0
 40 42  1  0
 17 10  1  0
 40 33  1  0
M  END
>  <zinc_id>  (86) 
ZINC000008221225

>  <smiles>  (86) 
CC1=C[C@H](O)CC(C)(C)[C@H]1/C=C/C(C)=C/C=C/C(C)=C/C=C/C=C(C)/C=C/C=C(C)/C=C/C1=C(C)C[C@@H](O)CC1(C)C

$$$$

     RDKit          3D

 11 10  0  0  0  0  0  0  0  0999 V2000
   -3.2808   -0.4613   -1.5520 C   0  0  0  0  0  0  0  0  0  0  0  0
   -2.7650    0.0939   -0.2572 C   0  0  0  0  0  0  0  0  0  0  0  0
   -3.7091    0.9413    0.5019 C   0  0  0  0  0  0  0  0  0  0  0  0
   -1.7536   -0.5769    0.3098 C   0  0  0  0  0  0  0  0  0  0  0  0
   -0.7129    0.0923    1.1391 C   0  0  0  0  0  0  0  0  0  0  0  0
    0.5258    0.4357    0.3204 C   0  0  0  0  0  0  0  0  0  0  0  0
    1.4474   -0.7332    0.2058 C   0  0  0  0  0  0  0  0  0  0  0  0
    0.9207   -1.9671   -0.4623 C   0  0  0  0  0  0  0  0  0  0  0  0
    2.7554   -0.4717    0.3053 C   0  0  0  0  0  0  0  0  0  0  0  0
    3.3346    0.8248   -0.1842 C   0  0  0  0  0  0  0  0  0  0  0  0
    3.2375    1.8221    0.7927 O   0  0  0  0  0  0  0  0  0  0  0  0
  1  2  1  0
  2  3  1  0
  2  4  2  3
  4  5  1  0
  5  6  1  0
  6  7  1  0
  7  8  1  0
  7  9  2  0
  9 10  1  0
 10 11  1  0
M  END
>  <zinc_id>  (87) 
ZINC000012405252

>  <smiles>  (87) 
CC(C)=CCC/C(C)=C\CO

$$$$

     RDKit          3D

 10  9  0  0  0  0  0  0  0  0999 V2000
   -2.8778    0.9909    1.3349 O   0  0  0  0  0  0  0  0  0  0  0  0
   -1.7473    0.9341    0.5756 C   0  0  0  0  0  0  0  0  0  0  0  0
   -1.4113   -0.6728    0.3662 C   0  0  1  0  0  0  0  0  0  0  0  0
   -1.3390   -0.5744   -1.1588 O   0  0  0  0  0  0  0  0  0  0  0  0
    0.2067   -0.5008    0.6552 C   0  0  0  0  0  0  0  0  0  0  0  0
    0.5709   -1.8458    0.7452 O   0  0  0  0  0  0  0  0  0  0  0  0
    0.8348   -0.0712   -0.8011 C   0  0  1  0  0  0  0  0  0  0  0  0
    0.2753    1.3420   -0.7472 O   0  0  0  0  0  0  0  0  0  0  0  0
    2.2326    0.4168   -0.0803 C   0  0  0  0  0  0  0  0  0  0  0  0
    3.2553   -0.0187   -0.8976 O   0  0  0  0  0  0  0  0  0  0  0  0
  1  2  1  0
  3  2  1  1
  3  4  1  0
  3  5  1  0
  5  6  1  0
  7  5  1  1
  7  8  1  0
  7  9  1  0
  9 10  1  0
M  END
>  <zinc_id>  (88) 
ZINC000018068098

>  <smiles>  (88) 
OC[C@H](O)C(O)[C@H](O)CO

$$$$

     RDKit          3D

 21 23  0  0  0  0  0  0  0  0999 V2000
   -0.9160   -2.4273   -1.4512 O   0  0  0  0  0  0  0  0  0  0  0  0
   -0.9402   -1.2037   -1.1251 C   0  0  0  0  0  0  0  0  0  0  0  0
    0.1950   -0.4084   -1.1302 C   0  0  0  0  0  0  0  0  0  0  0  0
    0.3810    0.6200   -0.2147 C   0  0  0  0  0  0  0  0  0  0  0  0
    1.7058    0.9358    0.3350 C   0  0  0  0  0  0  0  0  0  0  0  0
    2.3855    2.0951   -0.0181 C   0  0  0  0  0  0  0  0  0  0  0  0
    3.7667    2.0732   -0.1644 C   0  0  0  0  0  0  0  0  0  0  0  0
    4.5178    0.9456    0.1291 C   0  0  0  0  0  0  0  0  0  0  0  0
    5.6188    0.6877   -0.6935 O   0  0  0  0  0  0  0  0  0  0  0  0
    3.8608   -0.1028    0.7613 C   0  0  0  0  0  0  0  0  0  0  0  0
    4.5931   -1.2789    0.9218 O   0  0  0  0  0  0  0  0  0  0  0  0
    2.4805   -0.0643    0.9016 C   0  0  0  0  0  0  0  0  0  0  0  0
   -0.6623    0.9781    0.5143 O   0  0  0  0  0  0  0  0  0  0  0  0
   -1.8467    0.4214    0.3617 C   0  0  0  0  0  0  0  0  0  0  0  0
   -3.0151    0.9976    0.8225 C   0  0  0  0  0  0  0  0  0  0  0  0
   -4.2552    0.4740    0.4787 C   0  0  0  0  0  0  0  0  0  0  0  0
   -5.3731    1.2844    0.2756 O   0  0  0  0  0  0  0  0  0  0  0  0
   -4.3224   -0.8340    0.0213 C   0  0  0  0  0  0  0  0  0  0  0  0
   -3.1533   -1.4911   -0.3436 C   0  0  0  0  0  0  0  0  0  0  0  0
   -3.0811   -2.8780   -0.4336 O   0  0  0  0  0  0  0  0  0  0  0  0
   -1.9396   -0.8243   -0.2407 C   0  0  0  0  0  0  0  0  0  0  0  0
  1  2  2  0
  2  3  1  0
  3  4  2  0
  4  5  1  0
  5  6  2  0
  6  7  1  0
  7  8  2  0
  8  9  1  0
  8 10  1  0
 10 11  1  0
 10 12  2  0
  4 13  1  0
 13 14  1  0
 14 15  2  0
 15 16  1  0
 16 17  1  0
 16 18  2  0
 18 19  1  0
 19 20  1  0
 19 21  2  0
 21  2  1  0
 12  5  1  0
 21 14  1  0
M  END
>  <zinc_id>  (89) 
ZINC000018185774

>  <smiles>  (89) 
O=c1cc(-c2ccc(O)c(O)c2)oc2cc(O)cc(O)c12

$$$$

     RDKit          3D

 20 22  0  0  0  0  0  0  0  0999 V2000
   -0.0878   -2.1316    0.8263 O   0  0  0  0  0  0  0  0  0  0  0  0
   -0.3565   -1.2584   -0.0264 C   0  0  0  0  0  0  0  0  0  0  0  0
    0.6617   -0.4607   -0.5320 C   0  0  0  0  0  0  0  0  0  0  0  0
    1.9411   -0.3098    0.1767 C   0  0  0  0  0  0  0  0  0  0  0  0
    3.1039   -0.9157   -0.2838 C   0  0  0  0  0  0  0  0  0  0  0  0
    4.2986   -0.2089   -0.3438 C   0  0  0  0  0  0  0  0  0  0  0  0
    4.4075    1.0630    0.2033 C   0  0  0  0  0  0  0  0  0  0  0  0
    5.2080    2.0258   -0.4035 O   0  0  0  0  0  0  0  0  0  0  0  0
    3.3629    1.4431    1.0369 C   0  0  0  0  0  0  0  0  0  0  0  0
    2.1330    0.7982    0.9931 C   0  0  0  0  0  0  0  0  0  0  0  0
    0.2727    0.4259   -1.5295 C   0  0  0  0  0  0  0  0  0  0  0  0
   -0.9752    0.8351   -1.6522 O   0  0  0  0  0  0  0  0  0  0  0  0
   -1.9323    0.3711   -0.8671 C   0  0  0  0  0  0  0  0  0  0  0  0
   -2.9260    1.2293   -0.4137 C   0  0  0  0  0  0  0  0  0  0  0  0
   -3.8111    0.7788    0.5559 C   0  0  0  0  0  0  0  0  0  0  0  0
   -4.6206    1.7067    1.1720 O   0  0  0  0  0  0  0  0  0  0  0  0
   -3.8016   -0.5703    0.8745 C   0  0  0  0  0  0  0  0  0  0  0  0
   -2.7115   -1.3522    0.5128 C   0  0  0  0  0  0  0  0  0  0  0  0
   -2.5018   -2.6263    1.0430 O   0  0  0  0  0  0  0  0  0  0  0  0
   -1.6649   -0.8430   -0.2462 C   0  0  0  0  0  0  0  0  0  0  0  0
  1  2  2  0
  2  3  1  0
  3  4  1  0
  4  5  2  0
  5  6  1  0
  6  7  2  0
  7  8  1  0
  7  9  1  0
  9 10  2  0
  3 11  2  0
 11 12  1  0
 12 13  1  0
 13 14  2  0
 14 15  1  0
 15 16  1  0
 15 17  2  0
 17 18  1  0
 18 19  1  0
 18 20  2  0
 20  2  1  0
 10  4  1  0
 20 13  1  0
M  END
>  <zinc_id>  (90) 
ZINC000018825330

>  <smiles>  (90) 
O=c1c(-c2ccc(O)cc2)coc2cc(O)cc(O)c12

$$$$

     RDKit          3D

 19 21  0  0  0  0  0  0  0  0999 V2000
    0.6471    0.2852   -2.2500 O   0  0  0  0  0  0  0  0  0  0  0  0
    0.6762    0.1588   -1.0104 C   0  0  0  0  0  0  0  0  0  0  0  0
    1.8501    0.1911   -0.2956 C   0  0  0  0  0  0  0  0  0  0  0  0
    3.0673    0.1516   -0.9343 C   0  0  0  0  0  0  0  0  0  0  0  0
    4.1697   -0.3481   -0.2518 C   0  0  0  0  0  0  0  0  0  0  0  0
    4.0952   -0.7055    1.0850 C   0  0  0  0  0  0  0  0  0  0  0  0
    5.1373   -1.3678    1.7398 O   0  0  0  0  0  0  0  0  0  0  0  0
    2.9425   -0.3914    1.7724 C   0  0  0  0  0  0  0  0  0  0  0  0
    1.8322    0.0366    1.0727 C   0  0  0  0  0  0  0  0  0  0  0  0
    0.6757   -0.1184    1.6937 O   0  0  0  0  0  0  0  0  0  0  0  0
   -0.3584    0.4246    1.0798 C   0  0  0  0  0  0  0  0  0  0  0  0
   -0.4926    0.2807   -0.2959 C   0  0  0  0  0  0  0  0  0  0  0  0
   -1.7799   -0.0973   -0.8992 C   0  0  0  0  0  0  0  0  0  0  0  0
   -2.8117    0.8327   -0.9480 C   0  0  0  0  0  0  0  0  0  0  0  0
   -4.1200    0.4976   -0.6197 C   0  0  0  0  0  0  0  0  0  0  0  0
   -4.4237   -0.7928   -0.2014 C   0  0  0  0  0  0  0  0  0  0  0  0
   -5.4144   -1.0376    0.7371 O   0  0  0  0  0  0  0  0  0  0  0  0
   -3.4996   -1.7627   -0.5714 C   0  0  0  0  0  0  0  0  0  0  0  0
   -2.1930   -1.4245   -0.9028 C   0  0  0  0  0  0  0  0  0  0  0  0
  1  2  2  0
  2  3  1  0
  3  4  2  0
  4  5  1  0
  5  6  2  0
  6  7  1  0
  6  8  1  0
  8  9  2  0
  9 10  1  0
 10 11  1  0
 11 12  2  0
 12 13  1  0
 13 14  2  0
 14 15  1  0
 15 16  2  0
 16 17  1  0
 16 18  1  0
 18 19  2  0
 12  2  1  0
 19 13  1  0
  9  3  1  0
M  END
>  <zinc_id>  (91) 
ZINC000018847034

>  <smiles>  (91) 
O=c1c(-c2ccc(O)cc2)coc2cc(O)ccc12

$$$$

     RDKit          3D

 40 45  0  0  0  0  0  0  0  0999 V2000
   -1.8176    0.0868   -4.6035 O   0  0  0  0  0  0  0  0  0  0  0  0
   -2.1798   -0.3307   -3.4713 C   0  0  0  0  0  0  0  0  0  0  0  0
   -2.7463   -1.6113   -3.4149 O   0  0  0  0  0  0  0  0  0  0  0  0
   -2.2486    0.5389   -2.2943 C   0  0  0  0  0  0  0  0  0  0  0  0
   -3.5102    0.7852   -1.7603 C   0  0  0  0  0  0  0  0  0  0  0  0
   -3.6201    1.1772   -0.4289 C   0  0  0  0  0  0  0  0  0  0  0  0
   -4.7411    1.9066   -0.0159 O   0  0  0  0  0  0  0  0  0  0  0  0
   -2.5781    0.9089    0.4545 C   0  0  0  0  0  0  0  0  0  0  0  0
   -1.3892    0.3602   -0.0284 C   0  0  0  0  0  0  0  0  0  0  0  0
   -1.2103    0.6934   -1.3851 C   0  0  0  0  0  0  0  0  0  0  0  0
   -0.1320    0.8288    0.8742 C   0  0  2  0  0  0  0  0  0  0  0  0
    0.8702   -0.5867    0.6864 C   0  0  1  0  0  0  0  0  0  0  0  0
    0.0004   -1.3484   -0.4380 C   0  0  0  0  0  0  0  0  0  0  0  0
   -0.8463   -2.2279    0.2504 C   0  0  0  0  0  0  0  0  0  0  0  0
   -1.4540   -3.2862   -0.4217 C   0  0  0  0  0  0  0  0  0  0  0  0
   -1.0545   -3.5343   -1.7315 C   0  0  0  0  0  0  0  0  0  0  0  0
    0.2130   -3.1105   -2.0813 C   0  0  0  0  0  0  0  0  0  0  0  0
    1.0348   -3.9691   -2.8283 O   0  0  0  0  0  0  0  0  0  0  0  0
    0.7495   -2.0310   -1.3855 C   0  0  0  0  0  0  0  0  0  0  0  0
    2.1224   -1.7130   -1.7158 C   0  0  0  0  0  0  0  0  0  0  0  0
    2.7648   -2.2932   -2.6429 O   0  0  0  0  0  0  0  0  0  0  0  0
    2.7263   -0.5935   -1.0267 C   0  0  0  0  0  0  0  0  0  0  0  0
    3.9046   -0.0859   -1.5637 C   0  0  0  0  0  0  0  0  0  0  0  0
    4.2865   -0.3337   -2.8860 O   0  0  0  0  0  0  0  0  0  0  0  0
    4.4053    1.0776   -1.0006 C   0  0  0  0  0  0  0  0  0  0  0  0
    3.7673    1.5979    0.1177 C   0  0  0  0  0  0  0  0  0  0  0  0
    4.4854    2.4125    1.1087 C   0  0  0  0  0  0  0  0  0  0  0  0
    4.5273    3.6647    0.9507 O   0  0  0  0  0  0  0  0  0  0  0  0
    4.7163    1.9499    2.4077 O   0  0  0  0  0  0  0  0  0  0  0  0
    2.4063    1.3415    0.2164 C   0  0  0  0  0  0  0  0  0  0  0  0
    1.8088    0.2246   -0.3712 C   0  0  0  0  0  0  0  0  0  0  0  0
   -0.7407    0.2161    2.2528 C   0  0  0  0  0  0  0  0  0  0  0  0
    0.2487   -0.0421    3.2038 C   0  0  0  0  0  0  0  0  0  0  0  0
   -0.1166   -0.2955    4.5199 C   0  0  0  0  0  0  0  0  0  0  0  0
   -1.2860    0.2458    4.9918 C   0  0  0  0  0  0  0  0  0  0  0  0
   -1.9969    1.0868    4.1496 C   0  0  0  0  0  0  0  0  0  0  0  0
   -3.1351    1.7755    4.5391 O   0  0  0  0  0  0  0  0  0  0  0  0
   -1.7934    0.9533    2.7849 C   0  0  0  0  0  0  0  0  0  0  0  0
   -2.7613    1.4053    1.7947 C   0  0  0  0  0  0  0  0  0  0  0  0
   -3.6798    2.1558    2.1924 O   0  0  0  0  0  0  0  0  0  0  0  0
  1  2  2  0
  2  3  1  0
  2  4  1  0
  4  5  2  0
  5  6  1  0
  6  7  1  0
  6  8  2  0
  8  9  1  0
  9 10  2  0
 11  9  1  6
 11 12  1  0
 12 13  1  6
 13 14  2  0
 14 15  1  0
 15 16  2  0
 16 17  1  0
 17 18  1  0
 17 19  2  0
 19 20  1  0
 20 21  2  0
 20 22  1  0
 22 23  2  0
 23 24  1  0
 23 25  1  0
 25 26  2  0
 26 27  1  0
 27 28  2  0
 27 29  1  0
 26 30  1  0
 30 31  2  0
 11 32  1  0
 32 33  2  0
 33 34  1  0
 34 35  2  0
 35 36  1  0
 36 37  1  0
 36 38  2  0
 38 39  1  0
 39 40  2  0
 10  4  1  0
 31 12  1  0
 38 32  1  0
 39  8  1  0
 19 13  1  0
 31 22  1  0
M  END
>  <zinc_id>  (92) 
ZINC000028642721

>  <smiles>  (92) 
O=C(O)c1cc(O)c2c(c1)[C@@H]([C@@H]1c3cccc(O)c3C(=O)c3c(O)cc(C(=O)O)cc31)c1cccc(O)c1C2=O

$$$$

     RDKit          3D

 16 17  0  0  0  0  0  0  0  0999 V2000
   -0.8974   -1.8108    1.0667 O   0  0  0  0  0  0  0  0  0  0  0  0
   -1.0497   -0.8035    0.3120 C   0  0  0  0  0  0  0  0  0  0  0  0
    0.1228   -0.3860   -0.4435 C   0  0  0  0  0  0  0  0  0  0  0  0
    1.0094    0.4839   -0.0136 C   0  0  0  0  0  0  0  0  0  0  0  0
    2.4572    0.3164   -0.1906 C   0  0  0  0  0  0  0  0  0  0  0  0
    3.2906    1.4109   -0.3914 C   0  0  0  0  0  0  0  0  0  0  0  0
    4.5595    1.4287    0.1744 C   0  0  0  0  0  0  0  0  0  0  0  0
    5.0063    0.4083    1.0050 C   0  0  0  0  0  0  0  0  0  0  0  0
    4.3002   -0.7849    0.9107 C   0  0  0  0  0  0  0  0  0  0  0  0
    3.1149   -0.8483    0.1881 C   0  0  0  0  0  0  0  0  0  0  0  0
   -2.3944   -0.4059   -0.0465 C   0  0  0  0  0  0  0  0  0  0  0  0
   -2.6715    0.2346   -1.2475 C   0  0  0  0  0  0  0  0  0  0  0  0
   -3.9561    0.7188   -1.4631 C   0  0  0  0  0  0  0  0  0  0  0  0
   -4.8179    0.7816   -0.3814 C   0  0  0  0  0  0  0  0  0  0  0  0
   -4.6415   -0.0349    0.7009 C   0  0  0  0  0  0  0  0  0  0  0  0
   -3.4322   -0.7088    0.7972 C   0  0  0  0  0  0  0  0  0  0  0  0
  1  2  2  0
  2  3  1  0
  3  4  2  0
  4  5  1  0
  5  6  2  0
  6  7  1  0
  7  8  2  0
  8  9  1  0
  9 10  2  0
  2 11  1  0
 11 12  2  0
 12 13  1  0
 13 14  2  0
 14 15  1  0
 15 16  2  0
 10  5  1  0
 16 11  1  0
M  END
>  <zinc_id>  (93) 
ZINC000038139289

>  <smiles>  (93) 
O=C(/C=C/c1ccccc1)c1ccccc1

$$$$

     RDKit          3D

 34 36  0  0  0  0  0  0  0  0999 V2000
   -6.9451    1.9057    0.7905 O   0  0  0  0  0  0  0  0  0  0  0  0
   -6.5086    0.6162    0.5079 C   0  0  0  0  0  0  0  0  0  0  0  0
   -5.3250    0.5003    1.6417 C   0  0  1  0  0  0  0  0  0  0  0  0
   -4.6517   -0.6552    0.9634 O   0  0  0  0  0  0  0  0  0  0  0  0
   -3.2972   -0.4395    1.0347 C   0  0  1  0  0  0  0  0  0  0  0  0
   -2.7286   -1.4937    1.9531 C   0  0  0  0  0  0  0  0  0  0  0  0
   -3.2792   -2.7063    1.5027 O   0  0  0  0  0  0  0  0  0  0  0  0
   -2.9122   -0.4552   -0.2038 O   0  0  0  0  0  0  0  0  0  0  0  0
   -1.7165   -1.3780   -0.4541 C   0  0  2  0  0  0  0  0  0  0  0  0
   -0.8915   -0.3788    0.2875 O   0  0  0  0  0  0  0  0  0  0  0  0
    0.3437   -1.1418    0.5774 C   0  0  2  0  0  0  0  0  0  0  0  0
    1.0631    0.2878    0.9029 C   0  0  0  0  0  0  0  0  0  0  0  0
    2.2955    0.3051    1.2560 O   0  0  0  0  0  0  0  0  0  0  0  0
    2.9599    0.0725   -0.1008 C   0  0  2  0  0  0  0  0  0  0  0  0
    3.9023   -0.9201    0.5295 O   0  0  0  0  0  0  0  0  0  0  0  0
    5.0553   -1.0738   -0.4512 C   0  0  2  0  0  0  0  0  0  0  0  0
    5.8681    0.1132    0.2851 C   0  0  0  0  0  0  0  0  0  0  0  0
    5.8642   -0.3227    1.5553 O   0  0  0  0  0  0  0  0  0  0  0  0
    4.2357   -0.3267   -1.7547 C   0  0  2  0  0  0  0  0  0  0  0  0
    5.3610   -0.5374   -2.7481 O   0  0  0  0  0  0  0  0  0  0  0  0
    4.5045    1.3412   -1.5677 C   0  0  2  0  0  0  0  0  0  0  0  0
    5.9845    1.2796   -1.3546 O   0  0  0  0  0  0  0  0  0  0  0  0
    3.9896    1.4440    0.0545 C   0  0  1  0  0  0  0  0  0  0  0  0
    2.9169    2.4209   -0.3010 O   0  0  0  0  0  0  0  0  0  0  0  0
    0.9279   -1.3513   -1.0188 C   0  0  1  0  0  0  0  0  0  0  0  0
    0.0737   -2.5586   -1.3188 O   0  0  0  0  0  0  0  0  0  0  0  0
    0.1396   -0.2128   -1.9897 C   0  0  2  0  0  0  0  0  0  0  0  0
    0.0192    0.9665   -1.0587 O   0  0  0  0  0  0  0  0  0  0  0  0
   -1.5160   -0.5306   -1.9247 C   0  0  1  0  0  0  0  0  0  0  0  0
   -1.4306   -1.7664   -2.7717 O   0  0  0  0  0  0  0  0  0  0  0  0
   -3.1444    0.9945    1.7948 C   0  0  1  0  0  0  0  0  0  0  0  0
   -2.1330    1.6823    0.9054 O   0  0  0  0  0  0  0  0  0  0  0  0
   -4.3652    1.6029    0.7596 C   0  0  2  0  0  0  0  0  0  0  0  0
   -4.6596    2.7160    1.7163 O   0  0  0  0  0  0  0  0  0  0  0  0
  1  2  1  0
  3  2  1  6
  3  4  1  0
  4  5  1  0
  5  6  1  1
  6  7  1  0
  5  8  1  0
  9  8  1  1
  9 10  1  0
 10 11  1  0
 11 12  1  1
 12 13  1  0
 14 13  1  1
 14 15  1  0
 15 16  1  0
 16 17  1  1
 17 18  1  0
 16 19  1  0
 19 20  1  6
 19 21  1  0
 21 22  1  1
 21 23  1  0
 23 24  1  6
 11 25  1  0
 25 26  1  6
 25 27  1  0
 27 28  1  1
 27 29  1  0
 29 30  1  6
  5 31  1  0
 31 32  1  6
 31 33  1  0
 33 34  1  1
 33  3  1  0
 29  9  1  0
 23 14  1  0
M  END
>  <zinc_id>  (94) 
ZINC000040164424

>  <smiles>  (94) 
OC[C@H]1O[C@@](CO)(O[C@@H]2O[C@H](CO[C@@H]3O[C@H](CO)[C@H](O)[C@H](O)[C@H]3O)[C@@H](O)[C@H](O)[C@H]2O)[C@@H](O)[C@@H]1O

$$$$

     RDKit          3D

 34 36  0  0  0  0  0  0  0  0999 V2000
   -6.4586   -0.0497   -1.1138 O   0  0  0  0  0  0  0  0  0  0  0  0
   -6.1015   -0.6625   -0.3400 C   0  0  0  0  0  0  0  0  0  0  0  0
   -4.8335    0.1441    0.3065 C   0  0  1  0  0  0  0  0  0  0  0  0
   -3.9701    0.0525   -0.9450 O   0  0  0  0  0  0  0  0  0  0  0  0
   -3.1093    0.7788   -0.3903 C   0  0  1  0  0  0  0  0  0  0  0  0
   -3.1089    0.6199    1.1550 C   0  0  0  0  0  0  0  0  0  0  0  0
   -3.3954   -0.7096    1.4886 O   0  0  0  0  0  0  0  0  0  0  0  0
   -1.7677    0.8298   -0.5691 O   0  0  0  0  0  0  0  0  0  0  0  0
   -1.5858   -0.4977    0.2372 C   0  0  2  0  0  0  0  0  0  0  0  0
   -0.2634   -0.2272    0.8079 O   0  0  0  0  0  0  0  0  0  0  0  0
    1.0461   -0.6644    0.3937 C   0  0  2  0  0  0  0  0  0  0  0  0
    1.0273    0.3095   -0.9531 C   0  0  0  0  0  0  0  0  0  0  0  0
    2.1424    1.0493   -0.6735 O   0  0  0  0  0  0  0  0  0  0  0  0
    3.2085    0.0055   -0.3372 C   0  0  1  0  0  0  0  0  0  0  0  0
    4.2522    0.7974   -1.0922 O   0  0  0  0  0  0  0  0  0  0  0  0
    5.5899    0.1705   -0.8309 C   0  0  2  0  0  0  0  0  0  0  0  0
    5.0619   -1.1792   -0.0446 C   0  0  0  0  0  0  0  0  0  0  0  0
    6.2283   -1.8418    0.2918 O   0  0  0  0  0  0  0  0  0  0  0  0
    6.0184    1.1645    0.5179 C   0  0  2  0  0  0  0  0  0  0  0  0
    5.8022    0.1415    1.5841 O   0  0  0  0  0  0  0  0  0  0  0  0
    4.5057    1.9460    0.6541 C   0  0  2  0  0  0  0  0  0  0  0  0
    4.7959    2.3468    2.0678 O   0  0  0  0  0  0  0  0  0  0  0  0
    3.6246    0.6122    1.2291 C   0  0  1  0  0  0  0  0  0  0  0  0
    2.4616    1.5116    1.4646 O   0  0  0  0  0  0  0  0  0  0  0  0
    0.8035   -2.0636   -0.5758 C   0  0  1  0  0  0  0  0  0  0  0  0
    1.5483   -2.9261    0.3998 O   0  0  0  0  0  0  0  0  0  0  0  0
   -0.6954   -2.5062    0.0947 C   0  0  2  0  0  0  0  0  0  0  0  0
   -0.8385   -3.7069   -0.7929 O   0  0  0  0  0  0  0  0  0  0  0  0
   -1.1567   -1.4168   -1.1625 C   0  0  1  0  0  0  0  0  0  0  0  0
   -2.4795   -2.1199   -1.3212 O   0  0  0  0  0  0  0  0  0  0  0  0
   -3.7944    2.2291   -0.6909 C   0  0  1  0  0  0  0  0  0  0  0  0
   -4.3237    1.8837   -2.0727 O   0  0  0  0  0  0  0  0  0  0  0  0
   -5.3249    1.7474   -0.0423 C   0  0  2  0  0  0  0  0  0  0  0  0
   -4.9095    2.2311    1.3284 O   0  0  0  0  0  0  0  0  0  0  0  0
  1  2  1  0
  3  2  1  6
  3  4  1  0
  4  5  1  0
  5  6  1  1
  6  7  1  0
  5  8  1  0
  9  8  1  6
  9 10  1  0
 10 11  1  0
 11 12  1  6
 12 13  1  0
 14 13  1  6
 14 15  1  0
 15 16  1  0
 16 17  1  1
 17 18  1  0
 16 19  1  0
 19 20  1  1
 19 21  1  0
 21 22  1  1
 21 23  1  0
 23 24  1  1
 11 25  1  0
 25 26  1  1
 25 27  1  0
 27 28  1  6
 27 29  1  0
 29 30  1  6
  5 31  1  0
 31 32  1  6
 31 33  1  0
 33 34  1  1
 33  3  1  0
 29  9  1  0
 23 14  1  0
M  END
>  <zinc_id>  (95) 
ZINC000040164425

>  <smiles>  (95) 
OC[C@H]1O[C@@](CO)(O[C@@H]2O[C@H](CO[C@H]3O[C@H](CO)[C@H](O)[C@H](O)[C@H]3O)[C@@H](O)[C@H](O)[C@H]2O)[C@@H](O)[C@@H]1O

$$$$

     RDKit          3D

 34 36  0  0  0  0  0  0  0  0999 V2000
   -6.7994    1.9785    1.1792 O   0  0  0  0  0  0  0  0  0  0  0  0
   -6.5578    1.0581    0.9415 C   0  0  0  0  0  0  0  0  0  0  0  0
   -5.3736    1.0073   -0.2140 C   0  0  1  0  0  0  0  0  0  0  0  0
   -4.3351    0.5413    0.7993 O   0  0  0  0  0  0  0  0  0  0  0  0
   -3.4977    0.3082   -0.2243 C   0  0  1  0  0  0  0  0  0  0  0  0
   -3.6136    1.2790   -1.3914 C   0  0  0  0  0  0  0  0  0  0  0  0
   -3.5036    2.5756   -1.0664 O   0  0  0  0  0  0  0  0  0  0  0  0
   -2.1940    0.2629   -0.1038 O   0  0  0  0  0  0  0  0  0  0  0  0
   -1.6610   -1.1744   -0.2886 C   0  0  1  0  0  0  0  0  0  0  0  0
   -0.2102   -0.7221   -0.4306 O   0  0  0  0  0  0  0  0  0  0  0  0
   -0.0514    0.3380    0.6107 C   0  0  2  0  0  0  0  0  0  0  0  0
    1.3345    0.8980   -0.1132 C   0  0  0  0  0  0  0  0  0  0  0  0
    2.2052   -0.1416   -0.2853 O   0  0  0  0  0  0  0  0  0  0  0  0
    3.4236    0.1814    0.6088 C   0  0  2  0  0  0  0  0  0  0  0  0
    4.1489    1.0361   -0.4577 O   0  0  0  0  0  0  0  0  0  0  0  0
    5.2013    1.4391    0.5664 C   0  0  2  0  0  0  0  0  0  0  0  0
    5.9212    2.5633   -0.4086 C   0  0  0  0  0  0  0  0  0  0  0  0
    5.4214    3.6844    0.2654 O   0  0  0  0  0  0  0  0  0  0  0  0
    6.3948    0.2540    0.1442 C   0  0  2  0  0  0  0  0  0  0  0  0
    5.8306   -0.1693   -1.1785 O   0  0  0  0  0  0  0  0  0  0  0  0
    5.5746   -0.8953    1.1305 C   0  0  2  0  0  0  0  0  0  0  0  0
    6.3690   -2.0405    0.5559 O   0  0  0  0  0  0  0  0  0  0  0  0
    4.2950   -1.2146    0.0402 C   0  0  1  0  0  0  0  0  0  0  0  0
    3.6944   -2.1494    1.0445 O   0  0  0  0  0  0  0  0  0  0  0  0
    0.8507   -0.6477    1.6954 C   0  0  1  0  0  0  0  0  0  0  0  0
    0.1881   -0.2281    2.9885 O   0  0  0  0  0  0  0  0  0  0  0  0
   -0.0493   -2.1100    1.6230 C   0  0  2  0  0  0  0  0  0  0  0  0
    0.2706   -2.4684    0.1860 O   0  0  0  0  0  0  0  0  0  0  0  0
   -1.6529   -1.5416    1.4260 C   0  0  1  0  0  0  0  0  0  0  0  0
   -1.5411   -0.1388    1.9372 O   0  0  0  0  0  0  0  0  0  0  0  0
   -4.1226   -1.0848   -0.8150 C   0  0  1  0  0  0  0  0  0  0  0  0
   -4.2605   -1.7472    0.5570 O   0  0  0  0  0  0  0  0  0  0  0  0
   -5.7687   -0.6099   -0.6285 C   0  0  2  0  0  0  0  0  0  0  0  0
   -5.9314   -0.3210   -2.0974 O   0  0  0  0  0  0  0  0  0  0  0  0
  1  2  1  0
  3  2  1  1
  3  4  1  0
  4  5  1  0
  5  6  1  6
  6  7  1  0
  5  8  1  0
  9  8  1  1
  9 10  1  0
 10 11  1  0
 11 12  1  6
 12 13  1  0
 14 13  1  6
 14 15  1  0
 15 16  1  0
 16 17  1  6
 17 18  1  0
 16 19  1  0
 19 20  1  6
 19 21  1  0
 21 22  1  6
 21 23  1  0
 23 24  1  1
 11 25  1  0
 25 26  1  1
 25 27  1  0
 27 28  1  6
 27 29  1  0
 29 30  1  1
  5 31  1  0
 31 32  1  1
 31 33  1  0
 33 34  1  6
 33  3  1  0
 29  9  1  0
 23 14  1  0
M  END
>  <zinc_id>  (96) 
ZINC000040164426

>  <smiles>  (96) 
OC[C@H]1O[C@@](CO)(O[C@H]2O[C@H](CO[C@@H]3O[C@H](CO)[C@H](O)[C@H](O)[C@H]3O)[C@@H](O)[C@H](O)[C@H]2O)[C@@H](O)[C@@H]1O

$$$$

     RDKit          3D

 30 35  0  0  0  0  0  0  0  0999 V2000
   -1.9615    0.8429   -2.1510 C   0  0  0  0  0  0  0  0  0  0  0  0
   -2.8235    0.9135   -0.8674 C   0  0  2  0  0  0  0  0  0  0  0  0
   -2.0931   -0.2488    0.1201 C   0  0  1  0  0  0  0  0  0  0  0  0
   -1.9041   -1.4530   -1.0532 C   0  0  2  0  0  0  0  0  0  0  0  0
   -0.5044   -0.8537   -1.7080 C   0  0  0  0  0  0  0  0  0  0  0  0
    0.1646   -1.0711   -0.2554 C   0  0  1  0  0  0  0  0  0  0  0  0
    1.5405   -0.0950   -0.3899 C   0  0  2  0  0  0  0  0  0  0  0  0
    2.4380   -0.9932   -1.3691 C   0  0  0  0  0  0  0  0  0  0  0  0
    3.7422   -0.2681   -1.1209 C   0  0  0  0  0  0  0  0  0  0  0  0
    4.0073    0.3819    0.0011 C   0  0  0  0  0  0  0  0  0  0  0  0
    5.1699    1.2577    0.2612 C   0  0  0  0  0  0  0  0  0  0  0  0
    6.2607    0.3374    1.0864 C   0  0  1  0  0  0  0  0  0  0  0  0
    7.0124    1.5640    1.5688 O   0  0  0  0  0  0  0  0  0  0  0  0
    5.3509    0.3199    2.4597 C   0  0  0  0  0  0  0  0  0  0  0  0
    4.1769   -0.5627    2.1875 C   0  0  0  0  0  0  0  0  0  0  0  0
    3.2455    0.1756    1.2753 C   0  0  1  0  0  0  0  0  0  0  0  0
    2.7099    1.3806    1.8650 C   0  0  0  0  0  0  0  0  0  0  0  0
    2.1145   -0.9341    0.9674 C   0  0  1  0  0  0  0  0  0  0  0  0
    1.0213   -0.3637    2.0121 C   0  0  0  0  0  0  0  0  0  0  0  0
   -0.0354    0.4165    1.5041 C   0  0  0  0  0  0  0  0  0  0  0  0
   -0.6104    0.2844    0.1630 C   0  0  2  0  0  0  0  0  0  0  0  0
   -0.3083    1.4279   -0.6125 C   0  0  0  0  0  0  0  0  0  0  0  0
   -2.9005   -0.9036   -2.0295 O   0  0  0  0  0  0  0  0  0  0  0  0
   -3.8127   -0.2914   -1.3585 C   0  0  1  0  0  0  0  0  0  0  0  0
   -4.3542   -0.8684   -0.0650 C   0  0  0  0  0  0  0  0  0  0  0  0
   -4.7078    0.4074    0.6764 C   0  0  0  0  0  0  0  0  0  0  0  0
   -6.2077    0.8474    0.2271 C   0  0  1  0  0  0  0  0  0  0  0  0
   -5.7203    2.3201   -0.2812 C   0  0  0  0  0  0  0  0  0  0  0  0
   -6.1384    0.2029   -1.2638 C   0  0  0  0  0  0  0  0  0  0  0  0
   -4.8725    0.4461   -1.8496 N   0  0  0  0  0  0  0  0  0  0  0  0
  2  1  1  6
  2  3  1  0
  3  4  1  6
  4  5  1  6
  6  5  1  6
  6  7  1  0
  7  8  1  6
  8  9  1  0
  9 10  2  0
 10 11  1  0
 11 12  1  0
 12 13  1  1
 12 14  1  0
 14 15  1  0
 15 16  1  0
 16 17  1  1
 16 18  1  0
 18 19  1  1
 19 20  1  0
 20 21  1  0
 21 22  1  6
  4 23  1  0
 24 23  1  6
 24 25  1  0
 25 26  1  0
 26 27  1  0
 27 28  1  6
 27 29  1  0
 29 30  1  0
 24  2  1  0
 21  3  1  0
 30 24  1  0
 21  6  1  0
 18  7  1  0
 16 10  1  0
M  END
>  <zinc_id>  (97) 
ZINC000078817078

>  <smiles>  (97) 
C[C@@H]1CC[C@]2(NC1)O[C@H]1C[C@H]3[C@@H]4CC=C5C[C@@H](O)CC[C@]5(C)[C@H]4CC[C@]3(C)[C@H]1[C@H]2C

$$$$

     RDKit          3D

 13 13  0  0  0  0  0  0  0  0999 V2000
    2.6260   -0.1917    1.0307 O   0  0  0  0  0  0  0  0  0  0  0  0
    1.9976    0.1558    1.1952 C   0  0  0  0  0  0  0  0  0  0  0  0
    2.4297    1.4981    1.3668 O   0  0  0  0  0  0  0  0  0  0  0  0
    0.8662   -0.1868    0.2764 C   0  0  2  0  0  0  0  0  0  0  0  0
    1.3669   -1.1412   -0.5719 O   0  0  0  0  0  0  0  0  0  0  0  0
    0.2657    1.0064   -0.4447 C   0  0  0  0  0  0  0  0  0  0  0  0
   -1.3249    1.0375    0.0013 C   0  0  1  0  0  0  0  0  0  0  0  0
   -1.6378    2.0795   -1.0465 O   0  0  0  0  0  0  0  0  0  0  0  0
   -1.8984   -0.2009   -1.0416 C   0  0  1  0  0  0  0  0  0  0  0  0
   -0.8348   -0.0956   -2.0949 O   0  0  0  0  0  0  0  0  0  0  0  0
   -1.1263   -1.5105   -0.2453 C   0  0  2  0  0  0  0  0  0  0  0  0
   -2.3573   -1.7434    0.6102 O   0  0  0  0  0  0  0  0  0  0  0  0
   -0.3726   -0.7073    0.9643 C   0  0  0  0  0  0  0  0  0  0  0  0
  1  2  2  0
  2  3  1  0
  4  2  1  1
  4  5  1  0
  4  6  1  0
  6  7  1  0
  7  8  1  6
  7  9  1  0
  9 10  1  6
  9 11  1  0
 11 12  1  1
 11 13  1  0
 13  4  1  0
M  END
>  <zinc_id>  (98) 
ZINC000100009542

>  <smiles>  (98) 
O=C(O)[C@@]1(O)C[C@@H](O)[C@H](O)[C@H](O)C1

$$$$

     RDKit          3D

 10  9  0  0  0  0  0  0  0  0999 V2000
   -3.3831   -0.0128   -0.2583 O   0  0  0  0  0  0  0  0  0  0  0  0
   -2.4481   -0.6520    0.2005 C   0  0  0  0  0  0  0  0  0  0  0  0
   -1.2147    0.3335   -0.3426 C   0  0  1  0  0  0  0  0  0  0  0  0
   -1.3342    1.2178    0.9091 O   0  0  0  0  0  0  0  0  0  0  0  0
   -0.0229   -0.6707    0.4380 C   0  0  1  0  0  0  0  0  0  0  0  0
    0.0997   -1.5278   -0.7964 O   0  0  0  0  0  0  0  0  0  0  0  0
    1.2250    0.3992   -0.1434 C   0  0  1  0  0  0  0  0  0  0  0  0
    1.1580    1.2434    1.1402 O   0  0  0  0  0  0  0  0  0  0  0  0
    2.4024   -0.5813    0.5173 C   0  0  0  0  0  0  0  0  0  0  0  0
    3.5181    0.2507    0.3340 O   0  0  0  0  0  0  0  0  0  0  0  0
  1  2  1  0
  3  2  1  1
  3  4  1  0
  3  5  1  0
  5  6  1  6
  5  7  1  0
  7  8  1  1
  7  9  1  0
  9 10  1  0
M  END
>  <zinc_id>  (99) 
ZINC000100014205

>  <smiles>  (99) 
OC[C@H](O)[C@H](O)[C@H](O)CO

$$$$

     RDKit          3D

 10  9  0  0  0  0  0  0  0  0999 V2000
    2.6667   -1.0691   -0.8227 O   0  0  0  0  0  0  0  0  0  0  0  0
    2.3137   -0.1177   -0.2272 C   0  0  0  0  0  0  0  0  0  0  0  0
    0.7982   -0.5417    0.3101 C   0  0  1  0  0  0  0  0  0  0  0  0
    1.0617   -0.0004    1.7180 O   0  0  0  0  0  0  0  0  0  0  0  0
    0.1524    0.9339   -0.3608 C   0  0  2  0  0  0  0  0  0  0  0  0
    0.3178    1.7911    0.8646 O   0  0  0  0  0  0  0  0  0  0  0  0
   -1.4581    0.5013    0.1341 C   0  0  1  0  0  0  0  0  0  0  0  0
   -2.0378    1.1292   -1.1355 O   0  0  0  0  0  0  0  0  0  0  0  0
   -1.3972   -1.0020   -0.5839 C   0  0  0  0  0  0  0  0  0  0  0  0
   -2.4174   -1.6247    0.1033 O   0  0  0  0  0  0  0  0  0  0  0  0
  1  2  1  0
  3  2  1  6
  3  4  1  0
  3  5  1  0
  5  6  1  1
  5  7  1  0
  7  8  1  6
  7  9  1  0
  9 10  1  0
M  END
>  <zinc_id>  (100) 
ZINC000100018612

>  <smiles>  (100) 
OC[C@H](O)[C@@H](O)[C@H](O)CO

$$$$

     RDKit          3D

 12 12  0  0  0  0  0  0  0  0999 V2000
    0.9238   -2.3255    0.7125 O   0  0  0  0  0  0  0  0  0  0  0  0
    0.4889   -0.9103    1.0225 C   0  0  1  0  0  0  0  0  0  0  0  0
    1.8290   -0.2742    0.1475 C   0  0  1  0  0  0  0  0  0  0  0  0
    1.4646   -0.7578   -1.2388 O   0  0  0  0  0  0  0  0  0  0  0  0
    1.2408    1.3436   -0.0720 C   0  0  2  0  0  0  0  0  0  0  0  0
    0.6185    1.3877    1.3020 O   0  0  0  0  0  0  0  0  0  0  0  0
   -0.1652    0.9850   -0.9910 C   0  0  2  0  0  0  0  0  0  0  0  0
   -0.6585    2.4033   -0.8746 O   0  0  0  0  0  0  0  0  0  0  0  0
   -1.1818    0.5138    0.3216 C   0  0  1  0  0  0  0  0  0  0  0  0
   -2.3564    0.4493   -0.6347 O   0  0  0  0  0  0  0  0  0  0  0  0
   -0.6259   -1.0100   -0.2759 C   0  0  2  0  0  0  0  0  0  0  0  0
   -1.5776   -1.8051    0.5808 O   0  0  0  0  0  0  0  0  0  0  0  0
  2  1  1  6
  2  3  1  0
  3  4  1  6
  3  5  1  0
  5  6  1  1
  5  7  1  0
  7  8  1  1
  7  9  1  0
  9 10  1  6
  9 11  1  0
 11 12  1  1
 11  2  1  0
M  END
>  <zinc_id>  (101) 
ZINC000100024490

>  <smiles>  (101) 
O[C@H]1[C@H](O)[C@H](O)[C@@H](O)[C@H](O)[C@H]1O

$$$$

     RDKit          3D

 22 25  0  0  0  0  0  0  0  0999 V2000
    4.1527    1.1217    1.0582 C   0  0  0  0  0  0  0  0  0  0  0  0
    3.4479    0.9310    0.7255 N   0  0  0  0  0  0  0  0  0  0  0  0
    3.2878    1.4606   -0.6697 C   0  0  2  0  0  0  0  0  0  0  0  0
    1.8554    0.8228   -1.1940 C   0  0  0  0  0  0  0  0  0  0  0  0
    1.1436    0.8742    0.2863 C   0  0  1  0  0  0  0  0  0  0  0  0
   -0.2474    0.5775   -0.2756 O   0  0  0  0  0  0  0  0  0  0  0  0
   -0.7976   -0.6304   -0.4588 C   0  0  0  0  0  0  0  0  0  0  0  0
    0.0549   -1.5817   -0.4907 O   0  0  0  0  0  0  0  0  0  0  0  0
   -1.9237   -1.1582    0.5694 C   0  0  2  0  0  0  0  0  0  0  0  0
   -2.3770   -2.3241   -0.4947 C   0  0  0  0  0  0  0  0  0  0  0  0
   -3.4154   -2.9165    0.1808 O   0  0  0  0  0  0  0  0  0  0  0  0
   -3.0938   -0.1960    0.0602 C   0  0  0  0  0  0  0  0  0  0  0  0
   -2.8721    1.0233   -0.4422 C   0  0  0  0  0  0  0  0  0  0  0  0
   -3.9166    1.9305   -0.2548 C   0  0  0  0  0  0  0  0  0  0  0  0
   -4.5666    1.9541    0.9697 C   0  0  0  0  0  0  0  0  0  0  0  0
   -4.7135    0.7351    1.6091 C   0  0  0  0  0  0  0  0  0  0  0  0
   -4.0865   -0.3502    1.0285 C   0  0  0  0  0  0  0  0  0  0  0  0
    1.6177   -0.6822    0.4015 C   0  0  0  0  0  0  0  0  0  0  0  0
    3.1979   -0.5524    0.8120 C   0  0  1  0  0  0  0  0  0  0  0  0
    3.8162   -1.0770   -0.6924 C   0  0  2  0  0  0  0  0  0  0  0  0
    5.2321   -0.2643   -0.3256 O   0  0  0  0  0  0  0  0  0  0  0  0
    4.2041    0.3022   -1.4935 C   0  0  2  0  0  0  0  0  0  0  0  0
  1  2  1  0
  2  3  1  0
  3  4  1  6
  4  5  1  0
  5  6  1  6
  6  7  1  0
  7  8  2  0
  9  7  1  6
  9 10  1  0
 10 11  1  0
  9 12  1  0
 12 13  2  0
 13 14  1  0
 14 15  2  0
 15 16  1  0
 16 17  2  0
  5 18  1  0
 19 18  1  6
 19 20  1  0
 20 21  1  1
 22 21  1  1
 19  2  1  0
 22 20  1  0
 22  3  1  0
 17 12  1  0
M  END
>  <zinc_id>  (102) 
ZINC000100037020

>  <smiles>  (102) 
CN1[C@H]2C[C@H](OC(=O)[C@H](CO)c3ccccc3)C[C@@H]1[C@H]1O[C@@H]21

$$$$

     RDKit          3D

 35 38  0  0  0  0  0  0  0  0999 V2000
   -4.0010   -4.2130    0.7072 O   0  0  0  0  0  0  0  0  0  0  0  0
   -4.7594   -3.1009    1.3702 S   0  0  0  0  0  0  0  0  0  0  0  0
   -5.3805   -3.6604    2.6094 O   0  0  0  0  0  0  0  0  0  0  0  0
   -6.0168   -2.6708    0.3287 O   0  0  0  0  0  0  0  0  0  0  0  0
   -3.7283   -1.7263    1.7232 C   0  0  0  0  0  0  0  0  0  0  0  0
   -2.3580   -1.8612    1.9197 C   0  0  0  0  0  0  0  0  0  0  0  0
   -1.4706   -0.9003    1.4470 C   0  0  0  0  0  0  0  0  0  0  0  0
   -1.9353    0.2241    0.7725 C   0  0  0  0  0  0  0  0  0  0  0  0
   -3.2603    0.5428    1.0506 C   0  0  0  0  0  0  0  0  0  0  0  0
   -4.1507   -0.4166    1.5201 C   0  0  0  0  0  0  0  0  0  0  0  0
   -3.7190    1.7407    0.5243 C   0  0  0  0  0  0  0  0  0  0  0  0
   -3.0401    2.3302   -0.5323 C   0  0  0  0  0  0  0  0  0  0  0  0
   -3.7982    3.6105   -1.4542 S   0  0  0  0  0  0  0  0  0  0  0  0
   -3.5055    4.9179   -0.7584 O   0  0  0  0  0  0  0  0  0  0  0  0
   -3.2038    3.7053   -2.8280 O   0  0  0  0  0  0  0  0  0  0  0  0
   -5.4526    3.3862   -1.5819 O   0  0  0  0  0  0  0  0  0  0  0  0
   -1.8937    1.7440   -1.0548 C   0  0  0  0  0  0  0  0  0  0  0  0
   -1.4573    2.0414   -2.3393 O   0  0  0  0  0  0  0  0  0  0  0  0
   -1.2922    0.7016   -0.3642 C   0  0  0  0  0  0  0  0  0  0  0  0
   -0.0379    0.1441   -0.7671 N   0  0  0  0  0  0  0  0  0  0  0  0
    0.9410    0.3481   -0.0062 N   0  0  0  0  0  0  0  0  0  0  0  0
    2.0426   -0.5555    0.1385 C   0  0  0  0  0  0  0  0  0  0  0  0
    2.4727   -0.8016    1.4359 C   0  0  0  0  0  0  0  0  0  0  0  0
    3.8147   -1.0182    1.7127 C   0  0  0  0  0  0  0  0  0  0  0  0
    4.7833   -0.8375    0.7386 C   0  0  0  0  0  0  0  0  0  0  0  0
    6.3491   -0.1494    1.1526 S   0  0  0  0  0  0  0  0  0  0  0  0
    7.4402   -0.9809    0.5363 O   0  0  0  0  0  0  0  0  0  0  0  0
    6.5261   -0.0808    2.6401 O   0  0  0  0  0  0  0  0  0  0  0  0
    6.5077    1.4056    0.5450 O   0  0  0  0  0  0  0  0  0  0  0  0
    4.3472   -0.7508   -0.5652 C   0  0  0  0  0  0  0  0  0  0  0  0
    5.3024   -0.6260   -1.5619 C   0  0  0  0  0  0  0  0  0  0  0  0
    4.8441   -0.5833   -2.8681 C   0  0  0  0  0  0  0  0  0  0  0  0
    3.4999   -0.7772   -3.1618 C   0  0  0  0  0  0  0  0  0  0  0  0
    2.5999   -0.4222   -2.1661 C   0  0  0  0  0  0  0  0  0  0  0  0
    2.9902   -0.7098   -0.8630 C   0  0  0  0  0  0  0  0  0  0  0  0
  1  2  2  0
  2  3  2  0
  2  4  1  0
  2  5  1  0
  5  6  2  0
  6  7  1  0
  7  8  2  0
  8  9  1  0
  9 10  2  0
  9 11  1  0
 11 12  2  0
 12 13  1  0
 13 14  2  0
 13 15  2  0
 13 16  1  0
 12 17  1  0
 17 18  1  0
 17 19  2  0
 19 20  1  0
 20 21  2  0
 21 22  1  0
 22 23  2  0
 23 24  1  0
 24 25  2  0
 25 26  1  0
 26 27  2  0
 26 28  2  0
 26 29  1  0
 25 30  1  0
 30 31  2  0
 31 32  1  0
 32 33  2  0
 33 34  1  0
 34 35  2  0
 10  5  1  0
 35 22  1  0
 19  8  1  0
 35 30  1  0
M  END
>  <zinc_id>  (103) 
ZINC000100044664

>  <smiles>  (103) 
O=S(=O)(O)c1ccc2c(/N=N/c3ccc(S(=O)(=O)O)c4ccccc34)c(O)c(S(=O)(=O)O)cc2c1

$$$$

     RDKit          3D

 12 12  0  0  0  0  0  0  0  0999 V2000
   -1.1194   -2.3894   -0.3123 O   0  0  0  0  0  0  0  0  0  0  0  0
   -0.1419   -1.3734    0.2311 C   0  0  1  0  0  0  0  0  0  0  0  0
    0.3170   -0.9079   -1.3308 C   0  0  1  0  0  0  0  0  0  0  0  0
   -0.6922    0.0502   -1.8061 O   0  0  0  0  0  0  0  0  0  0  0  0
    1.3944    0.3318   -0.7848 C   0  0  2  0  0  0  0  0  0  0  0  0
    1.8413   -0.3583    0.4421 O   0  0  0  0  0  0  0  0  0  0  0  0
    0.1969    1.4114   -0.2595 C   0  0  2  0  0  0  0  0  0  0  0  0
    1.2663    2.2521    0.4201 O   0  0  0  0  0  0  0  0  0  0  0  0
   -0.4081    0.9547    1.2488 C   0  0  2  0  0  0  0  0  0  0  0  0
    0.6878    0.1738    1.8685 O   0  0  0  0  0  0  0  0  0  0  0  0
   -1.3934   -0.3723    0.7575 C   0  0  1  0  0  0  0  0  0  0  0  0
   -1.9487    0.2274   -0.4745 O   0  0  0  0  0  0  0  0  0  0  0  0
  2  1  1  6
  2  3  1  0
  3  4  1  6
  3  5  1  0
  5  6  1  1
  5  7  1  0
  7  8  1  1
  7  9  1  0
  9 10  1  1
  9 11  1  0
 11 12  1  6
 11  2  1  0
M  END
>  <zinc_id>  (104) 
ZINC000100073149

>  <smiles>  (104) 
O[C@H]1[C@H](O)[C@H](O)[C@H](O)[C@@H](O)[C@H]1O

$$$$

     RDKit          3D

 62 69  0  0  0  0  0  0  0  0999 V2000
    3.5943    3.0598   -2.3620 O   0  0  0  0  0  0  0  0  0  0  0  0
    3.1484    3.7960   -1.8670 C   0  0  0  0  0  0  0  0  0  0  0  0
    3.9763    4.8445   -1.4588 O   0  0  0  0  0  0  0  0  0  0  0  0
    2.0682    3.4937   -0.9125 C   0  0  0  0  0  0  0  0  0  0  0  0
    2.2257    3.7541    0.4525 C   0  0  0  0  0  0  0  0  0  0  0  0
    1.9332    2.7581    1.3875 C   0  0  0  0  0  0  0  0  0  0  0  0
    2.6254    2.6323    2.5935 O   0  0  0  0  0  0  0  0  0  0  0  0
    1.2714    1.6006    0.9826 C   0  0  0  0  0  0  0  0  0  0  0  0
    0.6445    1.6996   -0.2258 C   0  0  0  0  0  0  0  0  0  0  0  0
    1.0353    2.6044   -1.2126 C   0  0  0  0  0  0  0  0  0  0  0  0
   -0.2360    0.4495   -0.7468 C   0  0  2  0  0  0  0  0  0  0  0  0
   -0.6430   -0.0736    0.8709 C   0  0  1  0  0  0  0  0  0  0  0  0
   -2.0784    0.6761    0.8892 C   0  0  0  0  0  0  0  0  0  0  0  0
   -1.9335    1.9132    1.5165 C   0  0  0  0  0  0  0  0  0  0  0  0
   -2.6453    3.0107    1.0436 C   0  0  0  0  0  0  0  0  0  0  0  0
   -3.7616    2.7003    0.2745 C   0  0  0  0  0  0  0  0  0  0  0  0
   -3.9763    1.4510   -0.2744 C   0  0  0  0  0  0  0  0  0  0  0  0
   -5.2206    0.8778   -0.5890 O   0  0  0  0  0  0  0  0  0  0  0  0
   -6.2160    2.0942   -0.3253 C   0  0  2  0  0  0  0  0  0  0  0  0
   -6.6254    1.7413    1.1052 O   0  0  0  0  0  0  0  0  0  0  0  0
   -7.5811    0.6238    1.2753 C   0  0  2  0  0  0  0  0  0  0  0  0
   -6.8018    0.1482    2.6968 C   0  0  0  0  0  0  0  0  0  0  0  0
   -7.7557   -0.7446    3.1419 O   0  0  0  0  0  0  0  0  0  0  0  0
   -6.5285   -0.3938    0.3199 C   0  0  1  0  0  0  0  0  0  0  0  0
   -7.2220   -1.6395    0.8407 O   0  0  0  0  0  0  0  0  0  0  0  0
   -7.7778   -0.1910   -0.8352 C   0  0  2  0  0  0  0  0  0  0  0  0
   -6.9187   -0.6403   -2.0269 O   0  0  0  0  0  0  0  0  0  0  0  0
   -7.5632    1.4597   -1.2664 C   0  0  1  0  0  0  0  0  0  0  0  0
   -8.6151    1.9988   -0.2808 O   0  0  0  0  0  0  0  0  0  0  0  0
   -2.8238    0.6719   -0.2370 C   0  0  0  0  0  0  0  0  0  0  0  0
   -2.8116   -0.5173   -1.0483 C   0  0  0  0  0  0  0  0  0  0  0  0
   -3.6735   -0.5942   -1.9660 O   0  0  0  0  0  0  0  0  0  0  0  0
   -1.9456   -1.6475   -0.6910 C   0  0  0  0  0  0  0  0  0  0  0  0
   -2.4606   -2.9306   -0.9000 C   0  0  0  0  0  0  0  0  0  0  0  0
   -3.6861   -3.1111   -1.5576 O   0  0  0  0  0  0  0  0  0  0  0  0
   -1.8945   -4.0286   -0.2590 C   0  0  0  0  0  0  0  0  0  0  0  0
   -0.9962   -3.8427    0.7886 C   0  0  0  0  0  0  0  0  0  0  0  0
   -0.0537   -4.8959    1.1899 C   0  0  0  0  0  0  0  0  0  0  0  0
    0.5655   -5.4971    0.2610 O   0  0  0  0  0  0  0  0  0  0  0  0
    0.6856   -4.6802    2.3544 O   0  0  0  0  0  0  0  0  0  0  0  0
   -0.9158   -2.5507    1.2939 C   0  0  0  0  0  0  0  0  0  0  0  0
   -1.2159   -1.5122    0.4155 C   0  0  0  0  0  0  0  0  0  0  0  0
    1.0250   -0.5515   -0.8497 C   0  0  0  0  0  0  0  0  0  0  0  0
    1.0349   -1.3154   -2.0188 C   0  0  0  0  0  0  0  0  0  0  0  0
    2.1460   -2.1324   -2.2000 C   0  0  0  0  0  0  0  0  0  0  0  0
    3.1781   -2.0903   -1.2679 C   0  0  0  0  0  0  0  0  0  0  0  0
    3.0549   -1.3901   -0.0719 C   0  0  0  0  0  0  0  0  0  0  0  0
    4.2349   -1.0322    0.6082 O   0  0  0  0  0  0  0  0  0  0  0  0
    5.3199   -0.4502   -0.3849 C   0  0  2  0  0  0  0  0  0  0  0  0
    6.3848   -1.4662    0.1271 O   0  0  0  0  0  0  0  0  0  0  0  0
    7.4316   -1.0004   -0.8963 C   0  0  2  0  0  0  0  0  0  0  0  0
    8.4963   -2.1977   -0.4400 C   0  0  0  0  0  0  0  0  0  0  0  0
    7.7838   -3.3624   -0.7392 O   0  0  0  0  0  0  0  0  0  0  0  0
    8.1281    0.1074    0.2580 C   0  0  1  0  0  0  0  0  0  0  0  0
    9.1635    0.5757   -0.7372 O   0  0  0  0  0  0  0  0  0  0  0  0
    7.0212    1.3224   -0.2817 C   0  0  2  0  0  0  0  0  0  0  0  0
    7.5269    2.2962    0.7672 O   0  0  0  0  0  0  0  0  0  0  0  0
    5.8199    0.7421    0.8113 C   0  0  1  0  0  0  0  0  0  0  0  0
    4.8319    1.7529    0.2918 O   0  0  0  0  0  0  0  0  0  0  0  0
    1.8471   -0.7340    0.2017 C   0  0  0  0  0  0  0  0  0  0  0  0
    1.7610    0.2431    1.3068 C   0  0  0  0  0  0  0  0  0  0  0  0
    2.6134    0.1142    2.2362 O   0  0  0  0  0  0  0  0  0  0  0  0
  1  2  2  0
  2  3  1  0
  2  4  1  0
  4  5  2  0
  5  6  1  0
  6  7  1  0
  6  8  2  0
  8  9  1  0
  9 10  2  0
 11  9  1  1
 11 12  1  0
 12 13  1  6
 13 14  2  0
 14 15  1  0
 15 16  2  0
 16 17  1  0
 17 18  1  0
 19 18  1  6
 19 20  1  0
 20 21  1  0
 21 22  1  1
 22 23  1  0
 21 24  1  0
 24 25  1  1
 24 26  1  0
 26 27  1  6
 26 28  1  0
 28 29  1  1
 17 30  2  0
 30 31  1  0
 31 32  2  0
 31 33  1  0
 33 34  2  0
 34 35  1  0
 34 36  1  0
 36 37  2  0
 37 38  1  0
 38 39  2  0
 38 40  1  0
 37 41  1  0
 41 42  2  0
 11 43  1  0
 43 44  2  0
 44 45  1  0
 45 46  2  0
 46 47  1  0
 47 48  1  0
 49 48  1  1
 49 50  1  0
 50 51  1  0
 51 52  1  1
 52 53  1  0
 51 54  1  0
 54 55  1  6
 54 56  1  0
 56 57  1  1
 56 58  1  0
 58 59  1  6
 47 60  2  0
 60 61  1  0
 61 62  2  0
 10  4  1  0
 42 12  1  0
 60 43  1  0
 61  8  1  0
 30 13  1  0
 42 33  1  0
 58 49  1  0
 28 19  1  0
M  END
>  <zinc_id>  (105) 
ZINC000169335484

>  <smiles>  (105) 
O=C(O)c1cc(O)c2c(c1)[C@@H]([C@H]1c3cc(C(=O)O)cc(O)c3C(=O)c3c(O[C@@H]4O[C@H](CO)[C@@H](O)[C@H](O)[C@H]4O)cccc31)c1cccc(O[C@@H]3O[C@H](CO)[C@@H](O)[C@H](O)[C@H]3O)c1C2=O

$$$$

     RDKit          3D

 55 62  0  0  0  0  0  0  0  0999 V2000
   10.5452   -2.3572    1.7616 C   0  0  0  0  0  0  0  0  0  0  0  0
   10.5094   -1.4260    0.4172 C   0  0  1  0  0  0  0  0  0  0  0  0
    9.0392   -1.1189    0.5075 O   0  0  0  0  0  0  0  0  0  0  0  0
    9.1471   -0.4716   -0.8836 C   0  0  1  0  0  0  0  0  0  0  0  0
    7.6431   -0.2095   -0.8191 O   0  0  0  0  0  0  0  0  0  0  0  0
    7.5663    0.6967    0.3854 C   0  0  2  0  0  0  0  0  0  0  0  0
    6.5915   -0.4077    1.2518 C   0  0  1  0  0  0  0  0  0  0  0  0
    5.8748    0.6552    2.2954 C   0  0  0  0  0  0  0  0  0  0  0  0
    5.5283   -0.7313    0.3224 O   0  0  0  0  0  0  0  0  0  0  0  0
    4.6405    0.2422   -0.3177 C   0  0  1  0  0  0  0  0  0  0  0  0
    3.5268    0.0395    0.7364 O   0  0  0  0  0  0  0  0  0  0  0  0
    2.8619    1.1914    0.0294 C   0  0  2  0  0  0  0  0  0  0  0  0
    1.4324    0.9868    0.9404 C   0  0  1  0  0  0  0  0  0  0  0  0
    0.7079    2.2598    0.1772 C   0  0  0  0  0  0  0  0  0  0  0  0
    0.8466   -0.1768    0.3256 O   0  0  0  0  0  0  0  0  0  0  0  0
    0.1081   -0.2075   -0.9555 C   0  0  1  0  0  0  0  0  0  0  0  0
   -0.9168    0.8731   -0.6039 O   0  0  0  0  0  0  0  0  0  0  0  0
   -2.1488    0.0622   -0.3310 C   0  0  1  0  0  0  0  0  0  0  0  0
   -1.9184   -1.0305   -1.5417 C   0  0  0  0  0  0  0  0  0  0  0  0
   -2.4322   -2.2980   -0.8278 C   0  0  0  0  0  0  0  0  0  0  0  0
   -3.4112   -2.0299    0.2140 C   0  0  1  0  0  0  0  0  0  0  0  0
   -4.0047   -3.3056    0.7308 C   0  0  0  0  0  0  0  0  0  0  0  0
   -2.7372   -1.4540    1.5616 C   0  0  2  0  0  0  0  0  0  0  0  0
   -3.3862    0.0428    1.6053 C   0  0  0  0  0  0  0  0  0  0  0  0
   -4.7727   -0.0015    1.8621 C   0  0  0  0  0  0  0  0  0  0  0  0
   -5.5538   -1.0911    0.9662 C   0  0  2  0  0  0  0  0  0  0  0  0
   -4.5160   -1.0400   -0.3653 C   0  0  2  0  0  0  0  0  0  0  0  0
   -5.4254   -2.2441   -0.9983 C   0  0  0  0  0  0  0  0  0  0  0  0
   -6.5996   -1.3306   -1.7138 C   0  0  1  0  0  0  0  0  0  0  0  0
   -7.4998   -2.5180   -2.0699 O   0  0  0  0  0  0  0  0  0  0  0  0
   -7.4505   -1.0396   -0.3061 C   0  0  2  0  0  0  0  0  0  0  0  0
   -7.7229   -2.2703    0.2713 C   0  0  0  0  0  0  0  0  0  0  0  0
   -8.5559   -0.1782   -1.1256 C   0  0  1  0  0  0  0  0  0  0  0  0
   -8.8735    1.0495   -0.1482 C   0  0  0  0  0  0  0  0  0  0  0  0
   -9.7483    1.4193    0.7019 C   0  0  0  0  0  0  0  0  0  0  0  0
   -9.9103    2.8745    0.7060 C   0  0  0  0  0  0  0  0  0  0  0  0
  -10.5827    3.7804    1.0886 O   0  0  0  0  0  0  0  0  0  0  0  0
   -9.1301    3.1650   -0.4288 O   0  0  0  0  0  0  0  0  0  0  0  0
   -9.3744    2.0370   -1.2314 C   0  0  0  0  0  0  0  0  0  0  0  0
   -7.3340    0.7085   -1.8224 C   0  0  0  0  0  0  0  0  0  0  0  0
   -6.3054    0.8046   -0.6935 C   0  0  0  0  0  0  0  0  0  0  0  0
   -6.6159   -0.0166    0.3943 C   0  0  2  0  0  0  0  0  0  0  0  0
   -7.1578    0.4982    1.5451 O   0  0  0  0  0  0  0  0  0  0  0  0
   -1.4018   -0.8970    0.7919 C   0  0  0  0  0  0  0  0  0  0  0  0
    1.0771    0.8869   -1.7165 C   0  0  0  0  0  0  0  0  0  0  0  0
    2.5819    0.3323   -1.4234 C   0  0  2  0  0  0  0  0  0  0  0  0
    2.2991   -1.0453   -0.8660 O   0  0  0  0  0  0  0  0  0  0  0  0
    5.1669    1.5852    0.4791 C   0  0  0  0  0  0  0  0  0  0  0  0
    6.5534    1.8932   -0.2829 C   0  0  2  0  0  0  0  0  0  0  0  0
    6.1860    1.1984   -1.5815 O   0  0  0  0  0  0  0  0  0  0  0  0
    9.4978    1.0508   -0.3400 C   0  0  0  0  0  0  0  0  0  0  0  0
   11.0668    1.0291    0.0665 C   0  0  2  0  0  0  0  0  0  0  0  0
   11.4541    0.0108   -0.9808 O   0  0  0  0  0  0  0  0  0  0  0  0
   10.7982   -0.0447    1.3753 C   0  0  2  0  0  0  0  0  0  0  0  0
   12.2360   -0.4320    1.4753 O   0  0  0  0  0  0  0  0  0  0  0  0
  2  1  1  1
  2  3  1  0
  3  4  1  0
  4  5  1  1
  6  5  1  6
  6  7  1  0
  7  8  1  1
  7  9  1  0
  9 10  1  0
 10 11  1  1
 12 11  1  1
 12 13  1  0
 13 14  1  6
 13 15  1  0
 15 16  1  0
 16 17  1  1
 18 17  1  6
 18 19  1  0
 19 20  1  0
 20 21  1  0
 21 22  1  1
 21 23  1  0
 23 24  1  6
 24 25  1  0
 26 25  1  1
 26 27  1  0
 27 28  1  6
 28 29  1  0
 29 30  1  6
 29 31  1  0
 31 32  1  1
 31 33  1  0
 33 34  1  1
 34 35  2  0
 35 36  1  0
 36 37  2  0
 36 38  1  0
 38 39  1  0
 33 40  1  0
 40 41  1  0
 41 42  1  0
 42 43  1  1
 23 44  1  0
 16 45  1  0
 45 46  1  0
 46 47  1  1
 10 48  1  0
 48 49  1  0
 49 50  1  6
  4 51  1  0
 51 52  1  0
 52 53  1  6
 52 54  1  0
 54 55  1  1
 54  2  1  0
 49  6  1  0
 46 12  1  0
 44 18  1  0
 27 21  1  0
 42 31  1  0
 42 26  1  0
 39 34  1  0
M  END
>  <zinc_id>  (106) 
ZINC000242548690

>  <smiles>  (106) 
C[C@H]1O[C@@H](O[C@H]2[C@@H](O)C[C@H](O[C@H]3[C@@H](O)C[C@H](O[C@H]4CC[C@]5(C)[C@H]6C[C@@H](O)[C@]7(C)[C@@H](C8=CC(=O)OC8)CC[C@]7(O)[C@@H]6CC[C@@H]5C4)O[C@@H]3C)O[C@@H]2C)C[C@H](O)[C@@H]1O

$$$$

     RDKit          3D

 55 62  0  0  0  0  0  0  0  0999 V2000
   10.5452   -2.3572    1.7616 C   0  0  0  0  0  0  0  0  0  0  0  0
   10.5094   -1.4260    0.4172 C   0  0  1  0  0  0  0  0  0  0  0  0
    9.0392   -1.1189    0.5075 O   0  0  0  0  0  0  0  0  0  0  0  0
    9.1471   -0.4716   -0.8836 C   0  0  1  0  0  0  0  0  0  0  0  0
    7.6431   -0.2095   -0.8191 O   0  0  0  0  0  0  0  0  0  0  0  0
    7.5663    0.6967    0.3854 C   0  0  2  0  0  0  0  0  0  0  0  0
    6.5915   -0.4077    1.2518 C   0  0  1  0  0  0  0  0  0  0  0  0
    5.8748    0.6552    2.2954 C   0  0  0  0  0  0  0  0  0  0  0  0
    5.5283   -0.7313    0.3224 O   0  0  0  0  0  0  0  0  0  0  0  0
    4.6405    0.2422   -0.3177 C   0  0  1  0  0  0  0  0  0  0  0  0
    3.5268    0.0395    0.7364 O   0  0  0  0  0  0  0  0  0  0  0  0
    2.8619    1.1914    0.0294 C   0  0  2  0  0  0  0  0  0  0  0  0
    1.4324    0.9868    0.9404 C   0  0  1  0  0  0  0  0  0  0  0  0
    0.7079    2.2598    0.1772 C   0  0  0  0  0  0  0  0  0  0  0  0
    0.8466   -0.1768    0.3256 O   0  0  0  0  0  0  0  0  0  0  0  0
    0.1081   -0.2075   -0.9555 C   0  0  1  0  0  0  0  0  0  0  0  0
   -0.9168    0.8731   -0.6039 O   0  0  0  0  0  0  0  0  0  0  0  0
   -2.1488    0.0622   -0.3310 C   0  0  1  0  0  0  0  0  0  0  0  0
   -1.9184   -1.0305   -1.5417 C   0  0  0  0  0  0  0  0  0  0  0  0
   -2.4322   -2.2980   -0.8278 C   0  0  0  0  0  0  0  0  0  0  0  0
   -3.4112   -2.0299    0.2140 C   0  0  1  0  0  0  0  0  0  0  0  0
   -4.0047   -3.3056    0.7308 C   0  0  0  0  0  0  0  0  0  0  0  0
   -2.7372   -1.4540    1.5616 C   0  0  2  0  0  0  0  0  0  0  0  0
   -3.3862    0.0428    1.6053 C   0  0  0  0  0  0  0  0  0  0  0  0
   -4.7727   -0.0015    1.8621 C   0  0  0  0  0  0  0  0  0  0  0  0
   -5.5538   -1.0911    0.9662 C   0  0  2  0  0  0  0  0  0  0  0  0
   -4.5160   -1.0400   -0.3653 C   0  0  2  0  0  0  0  0  0  0  0  0
   -5.4254   -2.2441   -0.9983 C   0  0  0  0  0  0  0  0  0  0  0  0
   -6.5996   -1.3306   -1.7138 C   0  0  1  0  0  0  0  0  0  0  0  0
   -7.4998   -2.5180   -2.0699 O   0  0  0  0  0  0  0  0  0  0  0  0
   -7.4505   -1.0396   -0.3061 C   0  0  2  0  0  0  0  0  0  0  0  0
   -7.7229   -2.2703    0.2713 C   0  0  0  0  0  0  0  0  0  0  0  0
   -8.5559   -0.1782   -1.1256 C   0  0  1  0  0  0  0  0  0  0  0  0
   -8.8735    1.0495   -0.1482 C   0  0  0  0  0  0  0  0  0  0  0  0
   -9.7483    1.4193    0.7019 C   0  0  0  0  0  0  0  0  0  0  0  0
   -9.9103    2.8745    0.7060 C   0  0  0  0  0  0  0  0  0  0  0  0
  -10.5827    3.7804    1.0886 O   0  0  0  0  0  0  0  0  0  0  0  0
   -9.1301    3.1650   -0.4288 O   0  0  0  0  0  0  0  0  0  0  0  0
   -9.3744    2.0370   -1.2314 C   0  0  0  0  0  0  0  0  0  0  0  0
   -7.3340    0.7085   -1.8224 C   0  0  0  0  0  0  0  0  0  0  0  0
   -6.3054    0.8046   -0.6935 C   0  0  0  0  0  0  0  0  0  0  0  0
   -6.6159   -0.0166    0.3943 C   0  0  2  0  0  0  0  0  0  0  0  0
   -7.1578    0.4982    1.5451 O   0  0  0  0  0  0  0  0  0  0  0  0
   -1.4018   -0.8970    0.7919 C   0  0  0  0  0  0  0  0  0  0  0  0
    1.0771    0.8869   -1.7165 C   0  0  0  0  0  0  0  0  0  0  0  0
    2.5819    0.3323   -1.4234 C   0  0  2  0  0  0  0  0  0  0  0  0
    2.2991   -1.0453   -0.8660 O   0  0  0  0  0  0  0  0  0  0  0  0
    5.1669    1.5852    0.4791 C   0  0  0  0  0  0  0  0  0  0  0  0
    6.5534    1.8932   -0.2829 C   0  0  2  0  0  0  0  0  0  0  0  0
    6.1860    1.1984   -1.5815 O   0  0  0  0  0  0  0  0  0  0  0  0
    9.4978    1.0508   -0.3400 C   0  0  0  0  0  0  0  0  0  0  0  0
   11.0668    1.0291    0.0665 C   0  0  2  0  0  0  0  0  0  0  0  0
   11.4541    0.0108   -0.9808 O   0  0  0  0  0  0  0  0  0  0  0  0
   10.7982   -0.0447    1.3753 C   0  0  2  0  0  0  0  0  0  0  0  0
   12.2360   -0.4320    1.4753 O   0  0  0  0  0  0  0  0  0  0  0  0
  2  1  1  1
  2  3  1  0
  3  4  1  0
  4  5  1  1
  6  5  1  6
  6  7  1  0
  7  8  1  1
  7  9  1  0
  9 10  1  0
 10 11  1  1
 12 11  1  1
 12 13  1  0
 13 14  1  6
 13 15  1  0
 15 16  1  0
 16 17  1  1
 18 17  1  6
 18 19  1  0
 19 20  1  0
 20 21  1  0
 21 22  1  1
 21 23  1  0
 23 24  1  6
 24 25  1  0
 26 25  1  1
 26 27  1  0
 27 28  1  6
 28 29  1  0
 29 30  1  6
 29 31  1  0
 31 32  1  1
 31 33  1  0
 33 34  1  1
 34 35  2  0
 35 36  1  0
 36 37  2  0
 36 38  1  0
 38 39  1  0
 33 40  1  0
 40 41  1  0
 41 42  1  0
 42 43  1  1
 23 44  1  0
 16 45  1  0
 45 46  1  0
 46 47  1  1
 10 48  1  0
 48 49  1  0
 49 50  1  6
  4 51  1  0
 51 52  1  0
 52 53  1  6
 52 54  1  0
 54 55  1  1
 54  2  1  0
 49  6  1  0
 46 12  1  0
 44 18  1  0
 27 21  1  0
 42 31  1  0
 42 26  1  0
 39 34  1  0
M  END
>  <zinc_id>  (107) 
ZINC000242548690

>  <smiles>  (107) 
C[C@H]1O[C@@H](O[C@H]2[C@@H](O)C[C@H](O[C@H]3[C@@H](O)C[C@H](O[C@H]4CC[C@]5(C)[C@H]6C[C@@H](O)[C@]7(C)[C@@H](C8=CC(=O)OC8)CC[C@]7(O)[C@@H]6CC[C@@H]5C4)O[C@@H]3C)O[C@@H]2C)C[C@H](O)[C@@H]1O

$$$$

     RDKit          3D

 56 60  0  0  0  0  0  0  0  0999 V2000
   -3.7106   -6.6643    0.0223 O   0  0  0  0  0  0  0  0  0  0  0  0
   -4.3161   -5.7647    0.2981 C   0  0  0  0  0  0  0  0  0  0  0  0
   -3.5013   -4.9457    1.4958 C   0  0  1  0  0  0  0  0  0  0  0  0
   -4.1514   -3.7023    1.0596 O   0  0  0  0  0  0  0  0  0  0  0  0
   -3.5336   -2.4944    1.7489 C   0  0  2  0  0  0  0  0  0  0  0  0
   -2.0870   -2.6568    1.2356 O   0  0  0  0  0  0  0  0  0  0  0  0
   -2.0939   -1.7796    0.0146 C   0  0  2  0  0  0  0  0  0  0  0  0
   -0.9320   -0.6125    0.5915 C   0  0  1  0  0  0  0  0  0  0  0  0
   -0.5441   -0.1029   -0.9407 C   0  0  0  0  0  0  0  0  0  0  0  0
    0.8287   -0.1005   -0.9964 O   0  0  0  0  0  0  0  0  0  0  0  0
    1.2622    0.7053    0.2527 C   0  0  1  0  0  0  0  0  0  0  0  0
    2.2242   -0.3747    0.7202 O   0  0  0  0  0  0  0  0  0  0  0  0
    2.9905   -0.7497   -0.5046 C   0  0  2  0  0  0  0  0  0  0  0  0
    3.4484   -2.1923    0.1722 C   0  0  0  0  0  0  0  0  0  0  0  0
    3.6099   -1.9860    1.5212 O   0  0  0  0  0  0  0  0  0  0  0  0
    4.4075    0.0269    0.0918 C   0  0  1  0  0  0  0  0  0  0  0  0
    4.9185    0.6447   -1.1537 O   0  0  0  0  0  0  0  0  0  0  0  0
    6.0277   -0.1692   -1.7809 C   0  0  1  0  0  0  0  0  0  0  0  0
    7.0346    0.9968   -1.6959 O   0  0  0  0  0  0  0  0  0  0  0  0
    7.1687    1.1817   -0.2200 C   0  0  2  0  0  0  0  0  0  0  0  0
    7.8288    2.6886   -0.3241 C   0  0  0  0  0  0  0  0  0  0  0  0
    7.2411    3.2904    0.8104 O   0  0  0  0  0  0  0  0  0  0  0  0
    8.7184    0.4424   -0.3319 C   0  0  1  0  0  0  0  0  0  0  0  0
    8.8328    0.0994    1.1349 O   0  0  0  0  0  0  0  0  0  0  0  0
    8.2058   -1.1419   -0.7276 C   0  0  2  0  0  0  0  0  0  0  0  0
    8.1081   -0.8810   -2.2183 O   0  0  0  0  0  0  0  0  0  0  0  0
    6.5168   -1.0900   -0.3785 C   0  0  1  0  0  0  0  0  0  0  0  0
    6.5605   -0.0861    0.7063 O   0  0  0  0  0  0  0  0  0  0  0  0
    3.7529    1.5879    0.4439 C   0  0  2  0  0  0  0  0  0  0  0  0
    3.0157    1.2094    1.7071 O   0  0  0  0  0  0  0  0  0  0  0  0
    2.4037    1.7091   -0.6155 C   0  0  1  0  0  0  0  0  0  0  0  0
    2.8038    0.7623   -1.6982 O   0  0  0  0  0  0  0  0  0  0  0  0
   -1.9077    0.4898    0.9463 O   0  0  0  0  0  0  0  0  0  0  0  0
   -2.1003    1.2564   -0.3687 C   0  0  2  0  0  0  0  0  0  0  0  0
   -3.1615    2.1973    0.2099 O   0  0  0  0  0  0  0  0  0  0  0  0
   -2.9028    3.4384   -0.6101 C   0  0  2  0  0  0  0  0  0  0  0  0
   -4.3091    4.2033    0.0633 C   0  0  1  0  0  0  0  0  0  0  0  0
   -4.0649    5.6596   -0.7019 C   0  0  0  0  0  0  0  0  0  0  0  0
   -3.7206    6.5472    0.2453 O   0  0  0  0  0  0  0  0  0  0  0  0
   -5.3126    3.6246   -0.8951 O   0  0  0  0  0  0  0  0  0  0  0  0
   -5.4980    4.5924   -2.0529 C   0  0  2  0  0  0  0  0  0  0  0  0
   -6.0371    3.4208   -2.9124 O   0  0  0  0  0  0  0  0  0  0  0  0
   -3.8545    4.4533   -2.6645 C   0  0  2  0  0  0  0  0  0  0  0  0
   -4.2275    4.0028   -4.0434 O   0  0  0  0  0  0  0  0  0  0  0  0
   -3.6611    2.8727   -2.0440 C   0  0  1  0  0  0  0  0  0  0  0  0
   -2.3144    2.7475   -2.7051 O   0  0  0  0  0  0  0  0  0  0  0  0
   -3.2315    0.0875   -1.0189 C   0  0  2  0  0  0  0  0  0  0  0  0
   -4.5165    0.7241   -0.5847 O   0  0  0  0  0  0  0  0  0  0  0  0
   -3.4267   -0.7970    0.4369 C   0  0  1  0  0  0  0  0  0  0  0  0
   -4.4266   -1.6198   -0.3388 O   0  0  0  0  0  0  0  0  0  0  0  0
   -3.1589   -3.2133    3.2971 C   0  0  2  0  0  0  0  0  0  0  0  0
   -2.4155   -4.4125    2.8421 O   0  0  0  0  0  0  0  0  0  0  0  0
   -4.7262   -3.8638    3.5832 C   0  0  1  0  0  0  0  0  0  0  0  0
   -5.4904   -2.9955    2.5921 O   0  0  0  0  0  0  0  0  0  0  0  0
   -4.7415   -5.2923    2.6411 C   0  0  2  0  0  0  0  0  0  0  0  0
   -3.8333   -5.9743    3.6423 O   0  0  0  0  0  0  0  0  0  0  0  0
  1  2  1  0
  3  2  1  6
  3  4  1  0
  4  5  1  0
  5  6  1  6
  7  6  1  1
  7  8  1  0
  8  9  1  6
  9 10  1  0
 11 10  1  6
 11 12  1  0
 12 13  1  0
 13 14  1  1
 14 15  1  0
 13 16  1  0
 16 17  1  6
 18 17  1  1
 18 19  1  0
 19 20  1  0
 20 21  1  6
 21 22  1  0
 20 23  1  0
 23 24  1  1
 23 25  1  0
 25 26  1  6
 25 27  1  0
 27 28  1  1
 16 29  1  0
 29 30  1  1
 29 31  1  0
 31 32  1  6
  8 33  1  0
 33 34  1  0
 34 35  1  1
 36 35  1  1
 36 37  1  0
 37 38  1  6
 38 39  1  0
 37 40  1  0
 40 41  1  0
 41 42  1  6
 41 43  1  0
 43 44  1  6
 43 45  1  0
 45 46  1  6
 34 47  1  0
 47 48  1  1
 47 49  1  0
 49 50  1  6
  5 51  1  0
 51 52  1  6
 51 53  1  0
 53 54  1  6
 53 55  1  0
 55 56  1  1
 55  3  1  0
 49  7  1  0
 31 11  1  0
 45 36  1  0
 27 18  1  0
M  END
>  <zinc_id>  (108) 
ZINC000245224428

>  <smiles>  (108) 
OC[C@H]1O[C@H](O[C@@H]2[C@@H](CO)O[C@H](OC[C@H]3O[C@H](O[C@@H]4[C@@H](CO)O[C@H](O)[C@H](O)[C@H]4O)[C@H](O)[C@@H](O)[C@@H]3O[C@H]3O[C@H](CO)[C@@H](O)[C@H](O)[C@H]3O)[C@H](O)[C@H]2O)[C@H](O)[C@@H](O)[C@@H]1O

$$$$

     RDKit          3D

 30 35  0  0  0  0  0  0  0  0999 V2000
   -1.5766    2.1004   -0.6754 C   0  0  0  0  0  0  0  0  0  0  0  0
   -1.5112    0.5543   -0.1885 C   0  0  2  0  0  0  0  0  0  0  0  0
   -1.4683   -0.0269   -1.7737 C   0  0  2  0  0  0  0  0  0  0  0  0
   -2.1001   -1.5232   -1.2930 C   0  0  1  0  0  0  0  0  0  0  0  0
   -1.2732   -1.4196    0.1196 C   0  0  0  0  0  0  0  0  0  0  0  0
    0.1121   -1.7235   -0.6692 C   0  0  2  0  0  0  0  0  0  0  0  0
    1.1119   -0.6876    0.2205 C   0  0  1  0  0  0  0  0  0  0  0  0
    1.2878   -1.6530    1.4836 C   0  0  0  0  0  0  0  0  0  0  0  0
    2.3268   -0.8645    2.2364 C   0  0  0  0  0  0  0  0  0  0  0  0
    3.1158   -0.0715    1.4975 C   0  0  0  0  0  0  0  0  0  0  0  0
    4.1387    0.7736    2.1158 C   0  0  0  0  0  0  0  0  0  0  0  0
    4.1634    2.2484    1.3916 C   0  0  1  0  0  0  0  0  0  0  0  0
    5.5553    2.0089    0.8299 O   0  0  0  0  0  0  0  0  0  0  0  0
    3.4412    1.7955   -0.0159 C   0  0  0  0  0  0  0  0  0  0  0  0
    4.1134    0.5789   -0.5302 C   0  0  0  0  0  0  0  0  0  0  0  0
    3.5876   -0.5766    0.2069 C   0  0  1  0  0  0  0  0  0  0  0  0
    4.7471   -1.5538    0.3838 C   0  0  0  0  0  0  0  0  0  0  0  0
    2.4329   -1.3726   -0.5789 C   0  0  2  0  0  0  0  0  0  0  0  0
    2.3523   -0.3592   -1.8408 C   0  0  0  0  0  0  0  0  0  0  0  0
    1.0465    0.2970   -1.9281 C   0  0  0  0  0  0  0  0  0  0  0  0
   -0.0219   -0.6390   -1.8319 C   0  0  2  0  0  0  0  0  0  0  0  0
   -0.1239   -1.5404   -3.0603 C   0  0  0  0  0  0  0  0  0  0  0  0
   -3.3385   -0.8582   -0.7931 O   0  0  0  0  0  0  0  0  0  0  0  0
   -3.0846    0.2627   -0.1815 C   0  0  2  0  0  0  0  0  0  0  0  0
   -3.8706    1.4772   -0.5386 C   0  0  0  0  0  0  0  0  0  0  0  0
   -4.7684    1.9327    0.5613 C   0  0  0  0  0  0  0  0  0  0  0  0
   -5.8917    0.7832    0.8231 C   0  0  1  0  0  0  0  0  0  0  0  0
   -6.1195    0.5116   -0.7726 C   0  0  0  0  0  0  0  0  0  0  0  0
   -4.8616   -0.4617    0.9865 C   0  0  0  0  0  0  0  0  0  0  0  0
   -3.5227    0.0069    1.1973 N   0  0  0  0  0  0  0  0  0  0  0  0
  2  1  1  6
  2  3  1  0
  3  4  1  1
  4  5  1  1
  6  5  1  1
  6  7  1  0
  7  8  1  1
  8  9  1  0
  9 10  2  0
 10 11  1  0
 11 12  1  0
 12 13  1  6
 12 14  1  0
 14 15  1  0
 15 16  1  0
 16 17  1  1
 16 18  1  0
 18 19  1  6
 19 20  1  0
 20 21  1  0
 21 22  1  6
  4 23  1  0
 24 23  1  6
 24 25  1  0
 25 26  1  0
 26 27  1  0
 27 28  1  6
 27 29  1  0
 29 30  1  0
 24  2  1  0
 21  3  1  0
 30 24  1  0
 21  6  1  0
 18  7  1  0
 16 10  1  0
M  END
>  <zinc_id>  (109) 
ZINC000250898577

>  <smiles>  (109) 
C[C@@H]1CC[C@@]2(NC1)O[C@@H]1C[C@@H]3[C@H]4CC=C5C[C@@H](O)CC[C@]5(C)[C@@H]4CC[C@]3(C)[C@@H]1[C@H]2C

$$$$

     RDKit          3D

 30 35  0  0  0  0  0  0  0  0999 V2000
    2.8460   -0.3216    2.1874 C   0  0  0  0  0  0  0  0  0  0  0  0
    2.0046    0.1233    0.8663 C   0  0  2  0  0  0  0  0  0  0  0  0
    1.9589   -1.4251    0.2346 C   0  0  2  0  0  0  0  0  0  0  0  0
    1.9812   -0.8961   -1.3751 C   0  0  1  0  0  0  0  0  0  0  0  0
    0.7028    0.1088   -1.1323 C   0  0  0  0  0  0  0  0  0  0  0  0
   -0.1508   -1.2760   -1.1392 C   0  0  2  0  0  0  0  0  0  0  0  0
   -1.5033   -0.3921   -0.6547 C   0  0  1  0  0  0  0  0  0  0  0  0
   -2.3332   -0.6938   -2.0049 C   0  0  0  0  0  0  0  0  0  0  0  0
   -3.4365    0.3022   -1.7234 C   0  0  0  0  0  0  0  0  0  0  0  0
   -3.6883    0.4107   -0.4139 C   0  0  0  0  0  0  0  0  0  0  0  0
   -3.4385    1.5704    0.4462 C   0  0  0  0  0  0  0  0  0  0  0  0
   -4.8344    1.8908    1.2584 C   0  0  1  0  0  0  0  0  0  0  0  0
   -5.5986    1.9793   -0.0533 O   0  0  0  0  0  0  0  0  0  0  0  0
   -5.2759    0.3183    1.4613 C   0  0  0  0  0  0  0  0  0  0  0  0
   -4.0130   -0.4941    1.6868 C   0  0  0  0  0  0  0  0  0  0  0  0
   -3.6747   -0.8792    0.2985 C   0  0  1  0  0  0  0  0  0  0  0  0
   -4.7298   -1.7106   -0.3797 C   0  0  0  0  0  0  0  0  0  0  0  0
   -2.2730   -1.6495    0.1641 C   0  0  2  0  0  0  0  0  0  0  0  0
   -1.6708   -1.1297    1.5805 C   0  0  0  0  0  0  0  0  0  0  0  0
   -0.2310   -0.9235    1.3943 C   0  0  0  0  0  0  0  0  0  0  0  0
    0.3766   -1.6234    0.3307 C   0  0  2  0  0  0  0  0  0  0  0  0
    0.2711   -3.1296    0.4857 C   0  0  0  0  0  0  0  0  0  0  0  0
    2.9486    0.2257   -1.2009 O   0  0  0  0  0  0  0  0  0  0  0  0
    3.3139    0.4135   -0.0030 C   0  0  1  0  0  0  0  0  0  0  0  0
    3.4733    1.8683    0.2612 C   0  0  0  0  0  0  0  0  0  0  0  0
    4.5557    2.4555    0.8831 C   0  0  0  0  0  0  0  0  0  0  0  0
    5.9994    1.7391    0.7268 C   0  0  2  0  0  0  0  0  0  0  0  0
    6.4320    2.7506   -0.4830 C   0  0  0  0  0  0  0  0  0  0  0  0
    5.4981    0.5886   -0.3089 C   0  0  0  0  0  0  0  0  0  0  0  0
    4.4895   -0.2008    0.4086 N   0  0  0  0  0  0  0  0  0  0  0  0
  2  1  1  1
  2  3  1  0
  3  4  1  6
  4  5  1  1
  6  5  1  1
  6  7  1  0
  7  8  1  6
  8  9  1  0
  9 10  2  0
 10 11  1  0
 11 12  1  0
 12 13  1  6
 12 14  1  0
 14 15  1  0
 15 16  1  0
 16 17  1  6
 16 18  1  0
 18 19  1  1
 19 20  1  0
 20 21  1  0
 21 22  1  1
  4 23  1  0
 24 23  1  6
 24 25  1  0
 25 26  1  0
 26 27  1  0
 27 28  1  6
 27 29  1  0
 29 30  1  0
 24  2  1  0
 21  3  1  0
 30 24  1  0
 21  6  1  0
 18  7  1  0
 16 10  1  0
M  END
>  <zinc_id>  (110) 
ZINC000253500761

>  <smiles>  (110) 
C[C@H]1CC[C@]2(NC1)O[C@@H]1C[C@@H]3[C@H]4CC=C5C[C@@H](O)CC[C@]5(C)[C@@H]4CC[C@]3(C)[C@@H]1[C@H]2C

$$$$

     RDKit          3D

 30 35  0  0  0  0  0  0  0  0999 V2000
    2.6815   -0.3512    2.2480 C   0  0  0  0  0  0  0  0  0  0  0  0
    2.0715   -0.0687    0.7708 C   0  0  2  0  0  0  0  0  0  0  0  0
    1.8554   -1.7047    0.4536 C   0  0  2  0  0  0  0  0  0  0  0  0
    2.0082   -1.4652   -1.2168 C   0  0  1  0  0  0  0  0  0  0  0  0
    1.1055   -0.0979   -1.1103 C   0  0  0  0  0  0  0  0  0  0  0  0
   -0.1455   -1.1228   -0.9660 C   0  0  2  0  0  0  0  0  0  0  0  0
   -1.1563    0.0936   -0.3615 C   0  0  1  0  0  0  0  0  0  0  0  0
   -1.6791    0.3823   -1.8484 C   0  0  0  0  0  0  0  0  0  0  0  0
   -3.0679    0.8326   -1.7962 C   0  0  0  0  0  0  0  0  0  0  0  0
   -3.5016    1.1218   -0.5572 C   0  0  0  0  0  0  0  0  0  0  0  0
   -4.8559    1.7827   -0.6214 C   0  0  0  0  0  0  0  0  0  0  0  0
   -5.2451    2.1322    0.9366 C   0  0  1  0  0  0  0  0  0  0  0  0
   -6.7096    2.3023    0.5742 O   0  0  0  0  0  0  0  0  0  0  0  0
   -5.4735    0.5520    1.3483 C   0  0  0  0  0  0  0  0  0  0  0  0
   -4.0416    0.0354    1.5943 C   0  0  0  0  0  0  0  0  0  0  0  0
   -3.5424   -0.0820    0.2606 C   0  0  1  0  0  0  0  0  0  0  0  0
   -4.6112   -0.9270   -0.4564 C   0  0  0  0  0  0  0  0  0  0  0  0
   -2.3179   -1.0787   -0.0087 C   0  0  2  0  0  0  0  0  0  0  0  0
   -1.8292   -1.1780    1.5400 C   0  0  0  0  0  0  0  0  0  0  0  0
   -0.3453   -1.1034    1.5844 C   0  0  0  0  0  0  0  0  0  0  0  0
    0.2707   -1.6914    0.4674 C   0  0  2  0  0  0  0  0  0  0  0  0
   -0.0444   -3.1812    0.3728 C   0  0  0  0  0  0  0  0  0  0  0  0
    3.3134   -0.7480   -1.1250 O   0  0  0  0  0  0  0  0  0  0  0  0
    3.4663   -0.1209   -0.0223 C   0  0  1  0  0  0  0  0  0  0  0  0
    3.8266    1.3377   -0.3005 C   0  0  0  0  0  0  0  0  0  0  0  0
    5.1252    1.4190   -0.9678 C   0  0  0  0  0  0  0  0  0  0  0  0
    6.3194    0.8377   -0.0314 C   0  0  1  0  0  0  0  0  0  0  0  0
    6.6458    2.3076    0.5992 C   0  0  0  0  0  0  0  0  0  0  0  0
    5.3622    0.4334    1.2231 C   0  0  0  0  0  0  0  0  0  0  0  0
    4.5148   -0.6492    0.7618 N   0  0  0  0  0  0  0  0  0  0  0  0
  2  1  1  1
  2  3  1  0
  3  4  1  6
  4  5  1  1
  6  5  1  1
  6  7  1  0
  7  8  1  6
  8  9  1  0
  9 10  2  0
 10 11  1  0
 11 12  1  0
 12 13  1  6
 12 14  1  0
 14 15  1  0
 15 16  1  0
 16 17  1  6
 16 18  1  0
 18 19  1  1
 19 20  1  0
 20 21  1  0
 21 22  1  6
  4 23  1  0
 24 23  1  6
 24 25  1  0
 25 26  1  0
 26 27  1  0
 27 28  1  1
 27 29  1  0
 29 30  1  0
 24  2  1  0
 21  3  1  0
 30 24  1  0
 21  6  1  0
 18  7  1  0
 16 10  1  0
M  END
>  <zinc_id>  (111) 
ZINC000253500763

>  <smiles>  (111) 
C[C@@H]1CC[C@]2(NC1)O[C@@H]1C[C@@H]3[C@H]4CC=C5C[C@@H](O)CC[C@]5(C)[C@@H]4CC[C@]3(C)[C@@H]1[C@H]2C

$$$$

     RDKit          3D

 30 35  0  0  0  0  0  0  0  0999 V2000
   -3.0013   -1.1728   -1.4960 C   0  0  0  0  0  0  0  0  0  0  0  0
   -2.2102   -0.1837   -0.4758 C   0  0  2  0  0  0  0  0  0  0  0  0
   -2.0690   -1.4059    0.6707 C   0  0  2  0  0  0  0  0  0  0  0  0
   -2.0799   -0.3060    1.9580 C   0  0  1  0  0  0  0  0  0  0  0  0
   -1.0721    0.6948    1.1216 C   0  0  0  0  0  0  0  0  0  0  0  0
    0.0055   -0.4109    1.6351 C   0  0  2  0  0  0  0  0  0  0  0  0
    1.2948    0.2284    0.7498 C   0  0  1  0  0  0  0  0  0  0  0  0
    2.0068    0.6669    2.1152 C   0  0  0  0  0  0  0  0  0  0  0  0
    3.4349    0.5263    2.0523 C   0  0  0  0  0  0  0  0  0  0  0  0
    4.1737   -0.0473    1.1320 C   0  0  0  0  0  0  0  0  0  0  0  0
    5.5317    0.3011    0.7968 C   0  0  0  0  0  0  0  0  0  0  0  0
    5.6250    1.1004   -0.6382 C   0  0  1  0  0  0  0  0  0  0  0  0
    5.6923   -0.1853   -1.4465 O   0  0  0  0  0  0  0  0  0  0  0  0
    4.0040    1.2990   -0.8467 C   0  0  0  0  0  0  0  0  0  0  0  0
    3.3500   -0.0073   -1.0598 C   0  0  0  0  0  0  0  0  0  0  0  0
    3.4547   -0.8289    0.1302 C   0  0  1  0  0  0  0  0  0  0  0  0
    4.0858   -2.1935    0.0069 C   0  0  0  0  0  0  0  0  0  0  0  0
    2.0163   -1.2901    0.6925 C   0  0  2  0  0  0  0  0  0  0  0  0
    1.4518   -1.5679   -0.8099 C   0  0  0  0  0  0  0  0  0  0  0  0
   -0.0025   -1.1960   -0.7891 C   0  0  0  0  0  0  0  0  0  0  0  0
   -0.4818   -1.4849    0.5473 C   0  0  2  0  0  0  0  0  0  0  0  0
   -0.1609   -2.8589    1.0819 C   0  0  0  0  0  0  0  0  0  0  0  0
   -3.3487    0.3586    1.5345 O   0  0  0  0  0  0  0  0  0  0  0  0
   -3.4958    0.4088    0.2693 C   0  0  2  0  0  0  0  0  0  0  0  0
   -4.7709   -0.0791   -0.2900 C   0  0  0  0  0  0  0  0  0  0  0  0
   -5.0546    0.6049   -1.5822 C   0  0  0  0  0  0  0  0  0  0  0  0
   -5.6434    2.0917   -1.2742 C   0  0  2  0  0  0  0  0  0  0  0  0
   -4.5055    2.8201   -2.1909 C   0  0  0  0  0  0  0  0  0  0  0  0
   -4.7810    2.3020    0.0921 C   0  0  0  0  0  0  0  0  0  0  0  0
   -3.4496    1.8154   -0.1613 N   0  0  0  0  0  0  0  0  0  0  0  0
  2  1  1  6
  2  3  1  0
  3  4  1  1
  4  5  1  6
  6  5  1  6
  6  7  1  0
  7  8  1  1
  8  9  1  0
  9 10  2  0
 10 11  1  0
 11 12  1  0
 12 13  1  6
 12 14  1  0
 14 15  1  0
 15 16  1  0
 16 17  1  6
 16 18  1  0
 18 19  1  6
 19 20  1  0
 20 21  1  0
 21 22  1  1
  4 23  1  0
 24 23  1  1
 24 25  1  0
 25 26  1  0
 26 27  1  0
 27 28  1  6
 27 29  1  0
 29 30  1  0
 24  2  1  0
 21  3  1  0
 30 24  1  0
 21  6  1  0
 18  7  1  0
 16 10  1  0
M  END
>  <zinc_id>  (112) 
ZINC000253500764

>  <smiles>  (112) 
C[C@H]1CC[C@@]2(NC1)O[C@@H]1C[C@@H]3[C@H]4CC=C5C[C@@H](O)CC[C@]5(C)[C@@H]4CC[C@]3(C)[C@@H]1[C@H]2C

$$$$
